1

                    Execution started at 20230713.141031         



                    ---------------------------------------
                                     SWAN
                    SIMULATION OF WAVES IN NEAR SHORE AREAS
                             VERSION NUMBER 41.31               
                    ---------------------------------------


    
 PROJECT 'Inlet Test' ' '
    
  'INLET test'
    
  'Bathymetry: flat bottom'
    
  'COMMENTS'
    
 
    
 MODE NONSTATIONARY TWODIMENSIONAL
    
 
    
 SET DEPMIN 0.10 INRHOG 1 NAUTICAL
    
 COORDINATES CARTESIAN
    
 
    
 && KEYWORD for number of nested SWAN grids.
 NSGRIDS 1
    
 
    
 && KEYWORDS TO CREATE AND READ COMPUTATIONAL GRID &&
 CGRID CURVILINEAR 76 71 EXC 9.999000e+003 &
         CIRCLE 36 0.04 1.0 20
 Resolution in sigma-space: df/f =  0.1746
    
 READGRID COORDINATES 1 'Projects/Inlet_test/Coupled/inlet_test_grid_coord.grd' 4 0 0 FREE
    
 
    
 && KEYWORDS TO CREATE AND READ BATHYMETRY GRID &&
 INPGRID BOTTOM CURVILINEAR 0 0 76 71 EXC 9.999000e+003
    
 READINP BOTTOM  1 'Projects/Inlet_test/Coupled/inlet_test_bathy.bot' 4 0 FREE
    
 
    
 && KEYWORD TO CREATE CURRENT GRID &&
 INPGRID CURRENT CURVILINEAR 0 0 76 71 EXC 9.999000e+003              &
         NONSTAT  20000101.000000 25 DAY 20000126.000000
    
 
    
 && KEYWORD TO CREATE WATER LEVEL GRID &&
 INPGRID WLEV CURVILINEAR 0 0 76 71 EXC 9.999000e+003                 &
         NONSTAT  20000101.000000 25 DAY 20000126.000000
    
 
    
 && KEYWORD TO CREATE BOTTOM FRICTION GRID &&
 INPGRID FRIC CURVILINEAR 0 0 76 71 EXC 9.999000e+003                 &
         NONSTAT  20000101.000000 25 DAY 20000126.000000
    
 
    
 && BOUNDARY FORCING &&
 BOUNDPAR1 SHAPESPEC JONSWAP 3.3 PEAK DSPR DEGREES
    
 BOUNDPAR2 SEGMENT IJ 0 71 76 71 CONSTANT PAR 1.0 10.0 0. 20.
    
 
    
 & Restart name **********************************
 &INIT HOTSTART 'swan_inlet_rst.dat'
 
    
 & PHYSICS  **************************************
 GEN3
    
 FRICTION MADSEN 0.05
    
 OFF QUAD
    
 
    
 BLOCK 'COMPGRID' NOHEADER 'Projects/Inlet_test/Coupled/output/depth.mat'   LAY 4 DEPTH 1.    OUTPUT 20000101.000000 1 HR
    
 BLOCK 'COMPGRID' NOHEADER 'Projects/Inlet_test/Coupled/output/watlev.mat'  LAY 4 WATLEV 1.   OUTPUT 20000101.000000 1 HR
    
 BLOCK 'COMPGRID' NOHEADER 'Projects/Inlet_test/Coupled/output/botlev.mat'  LAY 4 BOTLEV 1.   OUTPUT 20000101.000000 1 HR
    
 BLOCK 'COMPGRID' NOHEADER 'Projects/Inlet_test/Coupled/output/vel.mat'     LAY 4 VEL 1.      OUTPUT 20000101.000000 1 HR
    
 BLOCK 'COMPGRID' NOHEADER 'Projects/Inlet_test/Coupled/output/fric.mat'    LAY 4 FRCOEF  1.  OUTPUT 20000101.000000 1 HR
    
 BLOCK 'COMPGRID' NOHEADER 'Projects/Inlet_test/Coupled/output/dissip.mat'  LAY 4 DISSIP 1.   OUTPUT 20000101.000000 1 HR
    
 BLOCK 'COMPGRID' NOHEADER 'Projects/Inlet_test/Coupled/output/hsig.mat'    LAY 4 HSIGN 1.    OUTPUT 20000101.000000 1 HR
    
 BLOCK 'COMPGRID' NOHEADER 'Projects/Inlet_test/Coupled/output/rtp.mat'     LAY 4 RTP 1.      OUTPUT 20000101.000000 1 HR
    
 BLOCK 'COMPGRID' NOHEADER 'Projects/Inlet_test/Coupled/output/tmbot.mat'   LAY 4 TMBOT 1.    OUTPUT 20000101.000000 1 HR
    
 BLOCK 'COMPGRID' NOHEADER 'Projects/Inlet_test/Coupled/output/ubot.mat'    LAY 4 UBOT 1.     OUTPUT 20000101.000000 1 HR
    
 BLOCK 'COMPGRID' NOHEADER 'Projects/Inlet_test/Coupled/output/wdir.mat'    LAY 4 DIR 1.      OUTPUT 20000101.000000 1 HR
    
 BLOCK 'COMPGRID' NOHEADER 'Projects/Inlet_test/Coupled/output/wdirbot.mat' LAY 4 DIRBOT 1.   OUTPUT 20000101.000000 1 HR
    
 BLOCK 'COMPGRID' NOHEADER 'Projects/Inlet_test/Coupled/output/wlen.mat'    LAY 4 WLEN 1.     OUTPUT 20000101.000000 1 HR
    
 BLOCK 'COMPGRID' NOHEADER 'Projects/Inlet_test/Coupled/output/qb.mat'      LAY 4 QB 1.       OUTPUT 20000101.000000 1 HR
    
 BLOCK 'COMPGRID' NOHEADER 'Projects/Inlet_test/Coupled/output/xp.mat'      LAY 4 XP 1.
    
 BLOCK 'COMPGRID' NOHEADER 'Projects/Inlet_test/Coupled/output/yp.mat'      LAY 4 YP 1.
    
 BLOCK 'COMPGRID' NOHEADER 'Projects/Inlet_test/Coupled/output/hsig.nc'   LAY 4 HSIGN 1.    OUTPUT 20000101.000000 1 HR
    
 POINTS  'point1' 5000.0 10000.0
    
 SPECOUT 'point1' SPEC2D 'Projects/Inlet_test/Coupled/output/point1.spc2d' OUTPUT 20000101.000000 1 HR
    
 TABLE   'point1' HEADER 'Projects/Inlet_test/Coupled/output/point1.table' HSIGN DIR DIRBOT WLEN OUTPUT 20000101.000000 1 HR
    
 
    
 PROP BSBT
    
 RESTART 'Projects/Inlet_test/Coupled/output/swan_inlet_rst.dat' FREE 1 HR
    
 
    
 COMPUTE NONSTATIONARY 20000101.000000 60 SEC 20000101.120000
 ** Warning          : Limiter is de-activated in case of no quadruplets
+SWAN is processing output request    1
+SWAN is processing output request    2
+SWAN is processing output request    3
+SWAN is processing output request    4
+SWAN is processing output request    5
+SWAN is processing output request    6
+SWAN is processing output request    7
+SWAN is processing output request    8
+SWAN is processing output request    9
+SWAN is processing output request   10
+SWAN is processing output request   11
+SWAN is processing output request   12
+SWAN is processing output request   13
+SWAN is processing output request   14
+SWAN is processing output request   17
+SWAN is processing output request   18
+SWAN is processing output request   19
 Time of computation ->  20000101.000100      in sec:         60.

----------------------------------------------------------------
                  COMPUTATIONAL PART OF SWAN
----------------------------------------------------------------

 Gridresolution       : MXC              77 MYC             72
                      : MCGRD          5334
                      : MSC              21 MDC             36
                      : MTC             720
                      : NSTATC            1 ITERMX           1
 Propagation flags    : ITFRE             1 IREFR            1
 Source term flags    : IBOT              3 ISURF            1
                      : IWCAP             1 IWIND            0
                      : ITRIAD            0 IQUAD            0
                      : IVEG              0 ITURBV           0
                      : IMUD              0 IICE             0
 Spatial step         : DX       0.0000E+00 DY      0.0000E+00
 Spectral bin         : df/f     0.1746E+00 DDIR    0.1000E+02
 Physical constants   : GRAV     0.9810E+01 RHO     0.1025E+04
 Wind input           : WSPEED   0.0000E+00 DIR     0.0000E+00
                      : ICEWIND  0.00
 Tail parameters      : E(f)     0.4000E+01 E(k)    0.2500E+01
                      : A(f)     0.5000E+01 A(k)    0.3000E+01
 Accuracy parameters  : DREL     0.1000E-01 NPNTS   0.9950E+02
                      : DHABS    0.5000E-02 CURVAT  0.5000E-02
                      : GRWMX    0.1000E+21
 Drying/flooding      : LEVEL    0.0000E+00 DEPMIN  0.1000E+00
 The nautical  convention for wind and wave directions is used
 Scheme for geographic propagation is BSBT  
 Scheme geogr. space  : PROPSC            1 ICMAX            5
 Scheme spectral space: CSS      0.5000E+00 CDD     0.5000E+00
 Solver is SIP
                      : EPS2     0.1000E-03 OUTPUT           0
                      : NITER            20
 Current is  on
 Quadruplets is off
 Triads is off
 Madsen et al. (`84)  : MF      -0.8000E-01 KN      0.5000E-01
 Vegetation is off
 Turbulence is off
 Fluid mud is off
 Dissipation by sea ice is off
 W-cap Komen (`84)    : EMPCOF (CDS2):   0.2360E-04
 W-cap Komen (`84)    : APM (STPM)   :   0.3020E-02
 W-cap Komen (`84)    : POWST        :   0.2000E+01
 W-cap Komen (`84)    : DELTA        :   0.1000E+01
 W-cap Komen (`84)    : POWK         :   0.1000E+01
 Battjes&Janssen (`78): ALPHA    0.1000E+01 GAMMA   0.7300E+00
 Set-up is off
 Diffraction is off
 Janssen (`89,`90)    : ALPHA    0.1000E-01 KAPPA   0.4100E+00
 Janssen (`89,`90)    : RHOA     0.1280E+01 RHOW    0.1025E+04

 1st and 2nd gen. wind: CF10     0.1880E+03 CF20    0.5900E+00
                      : CF30     0.1200E+00 CF40    0.2500E+03
                      : CF50     0.2300E-02 CF60   -0.2230E+00
                      : CF70     0.0000E+00 CF80   -0.5600E+00
                      : RHOAW    0.1249E-02 EDMLPM  0.3600E-02
                      : CDRAG    0.1230E-02 UMIN    0.1000E+01
                      : LIM_PM   0.1300E+00

+time 20000101.000100   , step      1; iteration    1; sweep 1 grid   1
+time 20000101.000100   , step      1; iteration    1; sweep 2 grid   1
+time 20000101.000100   , step      1; iteration    1; sweep 3 grid   1
+time 20000101.000100   , step      1; iteration    1; sweep 4 grid   1
 not possible to compute, first iteration


 Time of computation ->  20000101.000200      in sec:        120.
+time 20000101.000200   , step      2; iteration    1; sweep 1 grid   1
+time 20000101.000200   , step      2; iteration    1; sweep 2 grid   1
+time 20000101.000200   , step      2; iteration    1; sweep 3 grid   1
+time 20000101.000200   , step      2; iteration    1; sweep 4 grid   1
 not possible to compute, first iteration


 Time of computation ->  20000101.000300      in sec:        180.
+time 20000101.000300   , step      3; iteration    1; sweep 1 grid   1
+time 20000101.000300   , step      3; iteration    1; sweep 2 grid   1
+time 20000101.000300   , step      3; iteration    1; sweep 3 grid   1
+time 20000101.000300   , step      3; iteration    1; sweep 4 grid   1
 not possible to compute, first iteration


 Time of computation ->  20000101.000400      in sec:        240.
+time 20000101.000400   , step      4; iteration    1; sweep 1 grid   1
+time 20000101.000400   , step      4; iteration    1; sweep 2 grid   1
+time 20000101.000400   , step      4; iteration    1; sweep 3 grid   1
+time 20000101.000400   , step      4; iteration    1; sweep 4 grid   1
 not possible to compute, first iteration


 Time of computation ->  20000101.000500      in sec:        300.
+time 20000101.000500   , step      5; iteration    1; sweep 1 grid   1
+time 20000101.000500   , step      5; iteration    1; sweep 2 grid   1
+time 20000101.000500   , step      5; iteration    1; sweep 3 grid   1
+time 20000101.000500   , step      5; iteration    1; sweep 4 grid   1
 not possible to compute, first iteration


 Time of computation ->  20000101.000600      in sec:        360.
+time 20000101.000600   , step      6; iteration    1; sweep 1 grid   1
+time 20000101.000600   , step      6; iteration    1; sweep 2 grid   1
+time 20000101.000600   , step      6; iteration    1; sweep 3 grid   1
+time 20000101.000600   , step      6; iteration    1; sweep 4 grid   1
 not possible to compute, first iteration


 Time of computation ->  20000101.000700      in sec:        420.
+time 20000101.000700   , step      7; iteration    1; sweep 1 grid   1
+time 20000101.000700   , step      7; iteration    1; sweep 2 grid   1
+time 20000101.000700   , step      7; iteration    1; sweep 3 grid   1
+time 20000101.000700   , step      7; iteration    1; sweep 4 grid   1
 not possible to compute, first iteration


 Time of computation ->  20000101.000800      in sec:        480.
+time 20000101.000800   , step      8; iteration    1; sweep 1 grid   1
+time 20000101.000800   , step      8; iteration    1; sweep 2 grid   1
+time 20000101.000800   , step      8; iteration    1; sweep 3 grid   1
+time 20000101.000800   , step      8; iteration    1; sweep 4 grid   1
 not possible to compute, first iteration


 Time of computation ->  20000101.000900      in sec:        540.
+time 20000101.000900   , step      9; iteration    1; sweep 1 grid   1
+time 20000101.000900   , step      9; iteration    1; sweep 2 grid   1
+time 20000101.000900   , step      9; iteration    1; sweep 3 grid   1
+time 20000101.000900   , step      9; iteration    1; sweep 4 grid   1
 not possible to compute, first iteration


 Time of computation ->  20000101.001000      in sec:        600.
+time 20000101.001000   , step     10; iteration    1; sweep 1 grid   1
+time 20000101.001000   , step     10; iteration    1; sweep 2 grid   1
+time 20000101.001000   , step     10; iteration    1; sweep 3 grid   1
+time 20000101.001000   , step     10; iteration    1; sweep 4 grid   1
 not possible to compute, first iteration


 Time of computation ->  20000101.001100      in sec:        660.
+time 20000101.001100   , step     11; iteration    1; sweep 1 grid   1
+time 20000101.001100   , step     11; iteration    1; sweep 2 grid   1
+time 20000101.001100   , step     11; iteration    1; sweep 3 grid   1
+time 20000101.001100   , step     11; iteration    1; sweep 4 grid   1
 not possible to compute, first iteration


 Time of computation ->  20000101.001200      in sec:        720.
+time 20000101.001200   , step     12; iteration    1; sweep 1 grid   1
+time 20000101.001200   , step     12; iteration    1; sweep 2 grid   1
+time 20000101.001200   , step     12; iteration    1; sweep 3 grid   1
+time 20000101.001200   , step     12; iteration    1; sweep 4 grid   1
 not possible to compute, first iteration


 Time of computation ->  20000101.001300      in sec:        780.
+time 20000101.001300   , step     13; iteration    1; sweep 1 grid   1
+time 20000101.001300   , step     13; iteration    1; sweep 2 grid   1
+time 20000101.001300   , step     13; iteration    1; sweep 3 grid   1
+time 20000101.001300   , step     13; iteration    1; sweep 4 grid   1
 not possible to compute, first iteration


 Time of computation ->  20000101.001400      in sec:        840.
+time 20000101.001400   , step     14; iteration    1; sweep 1 grid   1
+time 20000101.001400   , step     14; iteration    1; sweep 2 grid   1
+time 20000101.001400   , step     14; iteration    1; sweep 3 grid   1
+time 20000101.001400   , step     14; iteration    1; sweep 4 grid   1
 not possible to compute, first iteration


 Time of computation ->  20000101.001500      in sec:        900.
+time 20000101.001500   , step     15; iteration    1; sweep 1 grid   1
+time 20000101.001500   , step     15; iteration    1; sweep 2 grid   1
+time 20000101.001500   , step     15; iteration    1; sweep 3 grid   1
+time 20000101.001500   , step     15; iteration    1; sweep 4 grid   1
 not possible to compute, first iteration


 Time of computation ->  20000101.001600      in sec:        960.
+time 20000101.001600   , step     16; iteration    1; sweep 1 grid   1
+time 20000101.001600   , step     16; iteration    1; sweep 2 grid   1
+time 20000101.001600   , step     16; iteration    1; sweep 3 grid   1
+time 20000101.001600   , step     16; iteration    1; sweep 4 grid   1
 not possible to compute, first iteration


 Time of computation ->  20000101.001700      in sec:       1020.
+time 20000101.001700   , step     17; iteration    1; sweep 1 grid   1
+time 20000101.001700   , step     17; iteration    1; sweep 2 grid   1
+time 20000101.001700   , step     17; iteration    1; sweep 3 grid   1
+time 20000101.001700   , step     17; iteration    1; sweep 4 grid   1
 not possible to compute, first iteration


 Time of computation ->  20000101.001800      in sec:       1080.
+time 20000101.001800   , step     18; iteration    1; sweep 1 grid   1
+time 20000101.001800   , step     18; iteration    1; sweep 2 grid   1
+time 20000101.001800   , step     18; iteration    1; sweep 3 grid   1
+time 20000101.001800   , step     18; iteration    1; sweep 4 grid   1
 not possible to compute, first iteration


 Time of computation ->  20000101.001900      in sec:       1140.
+time 20000101.001900   , step     19; iteration    1; sweep 1 grid   1
+time 20000101.001900   , step     19; iteration    1; sweep 2 grid   1
+time 20000101.001900   , step     19; iteration    1; sweep 3 grid   1
+time 20000101.001900   , step     19; iteration    1; sweep 4 grid   1
 not possible to compute, first iteration


 Time of computation ->  20000101.002000      in sec:       1200.
+time 20000101.002000   , step     20; iteration    1; sweep 1 grid   1
+time 20000101.002000   , step     20; iteration    1; sweep 2 grid   1
+time 20000101.002000   , step     20; iteration    1; sweep 3 grid   1
+time 20000101.002000   , step     20; iteration    1; sweep 4 grid   1
 not possible to compute, first iteration


 Time of computation ->  20000101.002100      in sec:       1260.
+time 20000101.002100   , step     21; iteration    1; sweep 1 grid   1
+time 20000101.002100   , step     21; iteration    1; sweep 2 grid   1
+time 20000101.002100   , step     21; iteration    1; sweep 3 grid   1
+time 20000101.002100   , step     21; iteration    1; sweep 4 grid   1
 not possible to compute, first iteration


 Time of computation ->  20000101.002200      in sec:       1320.
+time 20000101.002200   , step     22; iteration    1; sweep 1 grid   1
+time 20000101.002200   , step     22; iteration    1; sweep 2 grid   1
+time 20000101.002200   , step     22; iteration    1; sweep 3 grid   1
+time 20000101.002200   , step     22; iteration    1; sweep 4 grid   1
 not possible to compute, first iteration


 Time of computation ->  20000101.002300      in sec:       1380.
+time 20000101.002300   , step     23; iteration    1; sweep 1 grid   1
+time 20000101.002300   , step     23; iteration    1; sweep 2 grid   1
+time 20000101.002300   , step     23; iteration    1; sweep 3 grid   1
+time 20000101.002300   , step     23; iteration    1; sweep 4 grid   1
 not possible to compute, first iteration


 Time of computation ->  20000101.002400      in sec:       1440.
+time 20000101.002400   , step     24; iteration    1; sweep 1 grid   1
+time 20000101.002400   , step     24; iteration    1; sweep 2 grid   1
+time 20000101.002400   , step     24; iteration    1; sweep 3 grid   1
+time 20000101.002400   , step     24; iteration    1; sweep 4 grid   1
 not possible to compute, first iteration


 Time of computation ->  20000101.002500      in sec:       1500.
+time 20000101.002500   , step     25; iteration    1; sweep 1 grid   1
+time 20000101.002500   , step     25; iteration    1; sweep 2 grid   1
+time 20000101.002500   , step     25; iteration    1; sweep 3 grid   1
+time 20000101.002500   , step     25; iteration    1; sweep 4 grid   1
 not possible to compute, first iteration


 Time of computation ->  20000101.002600      in sec:       1560.
+time 20000101.002600   , step     26; iteration    1; sweep 1 grid   1
+time 20000101.002600   , step     26; iteration    1; sweep 2 grid   1
+time 20000101.002600   , step     26; iteration    1; sweep 3 grid   1
+time 20000101.002600   , step     26; iteration    1; sweep 4 grid   1
 not possible to compute, first iteration


 Time of computation ->  20000101.002700      in sec:       1620.
+time 20000101.002700   , step     27; iteration    1; sweep 1 grid   1
+time 20000101.002700   , step     27; iteration    1; sweep 2 grid   1
+time 20000101.002700   , step     27; iteration    1; sweep 3 grid   1
+time 20000101.002700   , step     27; iteration    1; sweep 4 grid   1
 not possible to compute, first iteration


 Time of computation ->  20000101.002800      in sec:       1680.
+time 20000101.002800   , step     28; iteration    1; sweep 1 grid   1
+time 20000101.002800   , step     28; iteration    1; sweep 2 grid   1
+time 20000101.002800   , step     28; iteration    1; sweep 3 grid   1
+time 20000101.002800   , step     28; iteration    1; sweep 4 grid   1
 not possible to compute, first iteration


 Time of computation ->  20000101.002900      in sec:       1740.
+time 20000101.002900   , step     29; iteration    1; sweep 1 grid   1
+time 20000101.002900   , step     29; iteration    1; sweep 2 grid   1
+time 20000101.002900   , step     29; iteration    1; sweep 3 grid   1
+time 20000101.002900   , step     29; iteration    1; sweep 4 grid   1
 not possible to compute, first iteration


 Time of computation ->  20000101.003000      in sec:       1800.
+time 20000101.003000   , step     30; iteration    1; sweep 1 grid   1
+time 20000101.003000   , step     30; iteration    1; sweep 2 grid   1
+time 20000101.003000   , step     30; iteration    1; sweep 3 grid   1
+time 20000101.003000   , step     30; iteration    1; sweep 4 grid   1
 not possible to compute, first iteration


 Time of computation ->  20000101.003100      in sec:       1860.
+time 20000101.003100   , step     31; iteration    1; sweep 1 grid   1
+time 20000101.003100   , step     31; iteration    1; sweep 2 grid   1
+time 20000101.003100   , step     31; iteration    1; sweep 3 grid   1
+time 20000101.003100   , step     31; iteration    1; sweep 4 grid   1
 not possible to compute, first iteration


 Time of computation ->  20000101.003200      in sec:       1920.
+time 20000101.003200   , step     32; iteration    1; sweep 1 grid   1
+time 20000101.003200   , step     32; iteration    1; sweep 2 grid   1
+time 20000101.003200   , step     32; iteration    1; sweep 3 grid   1
+time 20000101.003200   , step     32; iteration    1; sweep 4 grid   1
 not possible to compute, first iteration


 Time of computation ->  20000101.003300      in sec:       1980.
+time 20000101.003300   , step     33; iteration    1; sweep 1 grid   1
+time 20000101.003300   , step     33; iteration    1; sweep 2 grid   1
+time 20000101.003300   , step     33; iteration    1; sweep 3 grid   1
+time 20000101.003300   , step     33; iteration    1; sweep 4 grid   1
 not possible to compute, first iteration


 Time of computation ->  20000101.003400      in sec:       2040.
+time 20000101.003400   , step     34; iteration    1; sweep 1 grid   1
+time 20000101.003400   , step     34; iteration    1; sweep 2 grid   1
+time 20000101.003400   , step     34; iteration    1; sweep 3 grid   1
+time 20000101.003400   , step     34; iteration    1; sweep 4 grid   1
 not possible to compute, first iteration


 Time of computation ->  20000101.003500      in sec:       2100.
+time 20000101.003500   , step     35; iteration    1; sweep 1 grid   1
+time 20000101.003500   , step     35; iteration    1; sweep 2 grid   1
+time 20000101.003500   , step     35; iteration    1; sweep 3 grid   1
+time 20000101.003500   , step     35; iteration    1; sweep 4 grid   1
 not possible to compute, first iteration


 Time of computation ->  20000101.003600      in sec:       2160.
+time 20000101.003600   , step     36; iteration    1; sweep 1 grid   1
+time 20000101.003600   , step     36; iteration    1; sweep 2 grid   1
+time 20000101.003600   , step     36; iteration    1; sweep 3 grid   1
+time 20000101.003600   , step     36; iteration    1; sweep 4 grid   1
 not possible to compute, first iteration


 Time of computation ->  20000101.003700      in sec:       2220.
+time 20000101.003700   , step     37; iteration    1; sweep 1 grid   1
+time 20000101.003700   , step     37; iteration    1; sweep 2 grid   1
+time 20000101.003700   , step     37; iteration    1; sweep 3 grid   1
+time 20000101.003700   , step     37; iteration    1; sweep 4 grid   1
 not possible to compute, first iteration


 Time of computation ->  20000101.003800      in sec:       2280.
+time 20000101.003800   , step     38; iteration    1; sweep 1 grid   1
+time 20000101.003800   , step     38; iteration    1; sweep 2 grid   1
+time 20000101.003800   , step     38; iteration    1; sweep 3 grid   1
+time 20000101.003800   , step     38; iteration    1; sweep 4 grid   1
 not possible to compute, first iteration


 Time of computation ->  20000101.003900      in sec:       2340.
+time 20000101.003900   , step     39; iteration    1; sweep 1 grid   1
+time 20000101.003900   , step     39; iteration    1; sweep 2 grid   1
+time 20000101.003900   , step     39; iteration    1; sweep 3 grid   1
+time 20000101.003900   , step     39; iteration    1; sweep 4 grid   1
 not possible to compute, first iteration


 Time of computation ->  20000101.004000      in sec:       2400.
+time 20000101.004000   , step     40; iteration    1; sweep 1 grid   1
+time 20000101.004000   , step     40; iteration    1; sweep 2 grid   1
+time 20000101.004000   , step     40; iteration    1; sweep 3 grid   1
+time 20000101.004000   , step     40; iteration    1; sweep 4 grid   1
 not possible to compute, first iteration


 Time of computation ->  20000101.004100      in sec:       2460.
+time 20000101.004100   , step     41; iteration    1; sweep 1 grid   1
+time 20000101.004100   , step     41; iteration    1; sweep 2 grid   1
+time 20000101.004100   , step     41; iteration    1; sweep 3 grid   1
+time 20000101.004100   , step     41; iteration    1; sweep 4 grid   1
 not possible to compute, first iteration


 Time of computation ->  20000101.004200      in sec:       2520.
+time 20000101.004200   , step     42; iteration    1; sweep 1 grid   1
+time 20000101.004200   , step     42; iteration    1; sweep 2 grid   1
+time 20000101.004200   , step     42; iteration    1; sweep 3 grid   1
+time 20000101.004200   , step     42; iteration    1; sweep 4 grid   1
 not possible to compute, first iteration


 Time of computation ->  20000101.004300      in sec:       2580.
+time 20000101.004300   , step     43; iteration    1; sweep 1 grid   1
+time 20000101.004300   , step     43; iteration    1; sweep 2 grid   1
+time 20000101.004300   , step     43; iteration    1; sweep 3 grid   1
+time 20000101.004300   , step     43; iteration    1; sweep 4 grid   1
 not possible to compute, first iteration


 Time of computation ->  20000101.004400      in sec:       2640.
+time 20000101.004400   , step     44; iteration    1; sweep 1 grid   1
+time 20000101.004400   , step     44; iteration    1; sweep 2 grid   1
+time 20000101.004400   , step     44; iteration    1; sweep 3 grid   1
+time 20000101.004400   , step     44; iteration    1; sweep 4 grid   1
 not possible to compute, first iteration


 Time of computation ->  20000101.004500      in sec:       2700.
+time 20000101.004500   , step     45; iteration    1; sweep 1 grid   1
+time 20000101.004500   , step     45; iteration    1; sweep 2 grid   1
+time 20000101.004500   , step     45; iteration    1; sweep 3 grid   1
+time 20000101.004500   , step     45; iteration    1; sweep 4 grid   1
 not possible to compute, first iteration


 Time of computation ->  20000101.004600      in sec:       2760.
+time 20000101.004600   , step     46; iteration    1; sweep 1 grid   1
+time 20000101.004600   , step     46; iteration    1; sweep 2 grid   1
+time 20000101.004600   , step     46; iteration    1; sweep 3 grid   1
+time 20000101.004600   , step     46; iteration    1; sweep 4 grid   1
 not possible to compute, first iteration


 Time of computation ->  20000101.004700      in sec:       2820.
+time 20000101.004700   , step     47; iteration    1; sweep 1 grid   1
+time 20000101.004700   , step     47; iteration    1; sweep 2 grid   1
+time 20000101.004700   , step     47; iteration    1; sweep 3 grid   1
+time 20000101.004700   , step     47; iteration    1; sweep 4 grid   1
 not possible to compute, first iteration


 Time of computation ->  20000101.004800      in sec:       2880.
+time 20000101.004800   , step     48; iteration    1; sweep 1 grid   1
+time 20000101.004800   , step     48; iteration    1; sweep 2 grid   1
+time 20000101.004800   , step     48; iteration    1; sweep 3 grid   1
+time 20000101.004800   , step     48; iteration    1; sweep 4 grid   1
 not possible to compute, first iteration


 Time of computation ->  20000101.004900      in sec:       2940.
+time 20000101.004900   , step     49; iteration    1; sweep 1 grid   1
+time 20000101.004900   , step     49; iteration    1; sweep 2 grid   1
+time 20000101.004900   , step     49; iteration    1; sweep 3 grid   1
+time 20000101.004900   , step     49; iteration    1; sweep 4 grid   1
 not possible to compute, first iteration


 Time of computation ->  20000101.005000      in sec:       3000.
+time 20000101.005000   , step     50; iteration    1; sweep 1 grid   1
+time 20000101.005000   , step     50; iteration    1; sweep 2 grid   1
+time 20000101.005000   , step     50; iteration    1; sweep 3 grid   1
+time 20000101.005000   , step     50; iteration    1; sweep 4 grid   1
 not possible to compute, first iteration


 Time of computation ->  20000101.005100      in sec:       3060.
+time 20000101.005100   , step     51; iteration    1; sweep 1 grid   1
+time 20000101.005100   , step     51; iteration    1; sweep 2 grid   1
+time 20000101.005100   , step     51; iteration    1; sweep 3 grid   1
+time 20000101.005100   , step     51; iteration    1; sweep 4 grid   1
 not possible to compute, first iteration


 Time of computation ->  20000101.005200      in sec:       3120.
+time 20000101.005200   , step     52; iteration    1; sweep 1 grid   1
+time 20000101.005200   , step     52; iteration    1; sweep 2 grid   1
+time 20000101.005200   , step     52; iteration    1; sweep 3 grid   1
+time 20000101.005200   , step     52; iteration    1; sweep 4 grid   1
 not possible to compute, first iteration


 Time of computation ->  20000101.005300      in sec:       3180.
+time 20000101.005300   , step     53; iteration    1; sweep 1 grid   1
+time 20000101.005300   , step     53; iteration    1; sweep 2 grid   1
+time 20000101.005300   , step     53; iteration    1; sweep 3 grid   1
+time 20000101.005300   , step     53; iteration    1; sweep 4 grid   1
 not possible to compute, first iteration


 Time of computation ->  20000101.005400      in sec:       3240.
+time 20000101.005400   , step     54; iteration    1; sweep 1 grid   1
+time 20000101.005400   , step     54; iteration    1; sweep 2 grid   1
+time 20000101.005400   , step     54; iteration    1; sweep 3 grid   1
+time 20000101.005400   , step     54; iteration    1; sweep 4 grid   1
 not possible to compute, first iteration


 Time of computation ->  20000101.005500      in sec:       3300.
+time 20000101.005500   , step     55; iteration    1; sweep 1 grid   1
+time 20000101.005500   , step     55; iteration    1; sweep 2 grid   1
+time 20000101.005500   , step     55; iteration    1; sweep 3 grid   1
+time 20000101.005500   , step     55; iteration    1; sweep 4 grid   1
 not possible to compute, first iteration


 Time of computation ->  20000101.005600      in sec:       3360.
+time 20000101.005600   , step     56; iteration    1; sweep 1 grid   1
+time 20000101.005600   , step     56; iteration    1; sweep 2 grid   1
+time 20000101.005600   , step     56; iteration    1; sweep 3 grid   1
+time 20000101.005600   , step     56; iteration    1; sweep 4 grid   1
 not possible to compute, first iteration


 Time of computation ->  20000101.005700      in sec:       3420.
+time 20000101.005700   , step     57; iteration    1; sweep 1 grid   1
+time 20000101.005700   , step     57; iteration    1; sweep 2 grid   1
+time 20000101.005700   , step     57; iteration    1; sweep 3 grid   1
+time 20000101.005700   , step     57; iteration    1; sweep 4 grid   1
 not possible to compute, first iteration


 Time of computation ->  20000101.005800      in sec:       3480.
+time 20000101.005800   , step     58; iteration    1; sweep 1 grid   1
+time 20000101.005800   , step     58; iteration    1; sweep 2 grid   1
+time 20000101.005800   , step     58; iteration    1; sweep 3 grid   1
+time 20000101.005800   , step     58; iteration    1; sweep 4 grid   1
 not possible to compute, first iteration


 Time of computation ->  20000101.005900      in sec:       3540.
+time 20000101.005900   , step     59; iteration    1; sweep 1 grid   1
+time 20000101.005900   , step     59; iteration    1; sweep 2 grid   1
+time 20000101.005900   , step     59; iteration    1; sweep 3 grid   1
+time 20000101.005900   , step     59; iteration    1; sweep 4 grid   1
 not possible to compute, first iteration


 Time of computation ->  20000101.010000      in sec:       3600.
+time 20000101.010000   , step     60; iteration    1; sweep 1 grid   1
+time 20000101.010000   , step     60; iteration    1; sweep 2 grid   1
+time 20000101.010000   , step     60; iteration    1; sweep 3 grid   1
+time 20000101.010000   , step     60; iteration    1; sweep 4 grid   1
 not possible to compute, first iteration


+SWAN is processing output request    1
+SWAN is processing output request    2
+SWAN is processing output request    3
+SWAN is processing output request    4
+SWAN is processing output request    5
+SWAN is processing output request    6
+SWAN is processing output request    7
+SWAN is processing output request    8
+SWAN is processing output request    9
+SWAN is processing output request   10
+SWAN is processing output request   11
+SWAN is processing output request   12
+SWAN is processing output request   13
+SWAN is processing output request   14
+SWAN is processing output request   17
+SWAN is processing output request   18
+SWAN is processing output request   19
 Time of computation ->  20000101.010100      in sec:       3660.
+time 20000101.010100   , step     61; iteration    1; sweep 1 grid   1
+time 20000101.010100   , step     61; iteration    1; sweep 2 grid   1
+time 20000101.010100   , step     61; iteration    1; sweep 3 grid   1
+time 20000101.010100   , step     61; iteration    1; sweep 4 grid   1
 not possible to compute, first iteration


 Time of computation ->  20000101.010200      in sec:       3720.
+time 20000101.010200   , step     62; iteration    1; sweep 1 grid   1
+time 20000101.010200   , step     62; iteration    1; sweep 2 grid   1
+time 20000101.010200   , step     62; iteration    1; sweep 3 grid   1
+time 20000101.010200   , step     62; iteration    1; sweep 4 grid   1
 not possible to compute, first iteration


 Time of computation ->  20000101.010300      in sec:       3780.
+time 20000101.010300   , step     63; iteration    1; sweep 1 grid   1
+time 20000101.010300   , step     63; iteration    1; sweep 2 grid   1
+time 20000101.010300   , step     63; iteration    1; sweep 3 grid   1
+time 20000101.010300   , step     63; iteration    1; sweep 4 grid   1
 not possible to compute, first iteration


 Time of computation ->  20000101.010400      in sec:       3840.
+time 20000101.010400   , step     64; iteration    1; sweep 1 grid   1
+time 20000101.010400   , step     64; iteration    1; sweep 2 grid   1
+time 20000101.010400   , step     64; iteration    1; sweep 3 grid   1
+time 20000101.010400   , step     64; iteration    1; sweep 4 grid   1
 not possible to compute, first iteration


 Time of computation ->  20000101.010500      in sec:       3900.
+time 20000101.010500   , step     65; iteration    1; sweep 1 grid   1
+time 20000101.010500   , step     65; iteration    1; sweep 2 grid   1
+time 20000101.010500   , step     65; iteration    1; sweep 3 grid   1
+time 20000101.010500   , step     65; iteration    1; sweep 4 grid   1
 not possible to compute, first iteration


 Time of computation ->  20000101.010600      in sec:       3960.
+time 20000101.010600   , step     66; iteration    1; sweep 1 grid   1
+time 20000101.010600   , step     66; iteration    1; sweep 2 grid   1
+time 20000101.010600   , step     66; iteration    1; sweep 3 grid   1
+time 20000101.010600   , step     66; iteration    1; sweep 4 grid   1
 not possible to compute, first iteration


 Time of computation ->  20000101.010700      in sec:       4020.
+time 20000101.010700   , step     67; iteration    1; sweep 1 grid   1
+time 20000101.010700   , step     67; iteration    1; sweep 2 grid   1
+time 20000101.010700   , step     67; iteration    1; sweep 3 grid   1
+time 20000101.010700   , step     67; iteration    1; sweep 4 grid   1
 not possible to compute, first iteration


 Time of computation ->  20000101.010800      in sec:       4080.
+time 20000101.010800   , step     68; iteration    1; sweep 1 grid   1
+time 20000101.010800   , step     68; iteration    1; sweep 2 grid   1
+time 20000101.010800   , step     68; iteration    1; sweep 3 grid   1
+time 20000101.010800   , step     68; iteration    1; sweep 4 grid   1
 not possible to compute, first iteration


 Time of computation ->  20000101.010900      in sec:       4140.
+time 20000101.010900   , step     69; iteration    1; sweep 1 grid   1
+time 20000101.010900   , step     69; iteration    1; sweep 2 grid   1
+time 20000101.010900   , step     69; iteration    1; sweep 3 grid   1
+time 20000101.010900   , step     69; iteration    1; sweep 4 grid   1
 not possible to compute, first iteration


 Time of computation ->  20000101.011000      in sec:       4200.
+time 20000101.011000   , step     70; iteration    1; sweep 1 grid   1
+time 20000101.011000   , step     70; iteration    1; sweep 2 grid   1
+time 20000101.011000   , step     70; iteration    1; sweep 3 grid   1
+time 20000101.011000   , step     70; iteration    1; sweep 4 grid   1
 not possible to compute, first iteration


 Time of computation ->  20000101.011100      in sec:       4260.
+time 20000101.011100   , step     71; iteration    1; sweep 1 grid   1
+time 20000101.011100   , step     71; iteration    1; sweep 2 grid   1
+time 20000101.011100   , step     71; iteration    1; sweep 3 grid   1
+time 20000101.011100   , step     71; iteration    1; sweep 4 grid   1
 not possible to compute, first iteration


 Time of computation ->  20000101.011200      in sec:       4320.
+time 20000101.011200   , step     72; iteration    1; sweep 1 grid   1
+time 20000101.011200   , step     72; iteration    1; sweep 2 grid   1
+time 20000101.011200   , step     72; iteration    1; sweep 3 grid   1
+time 20000101.011200   , step     72; iteration    1; sweep 4 grid   1
 not possible to compute, first iteration


 Time of computation ->  20000101.011300      in sec:       4380.
+time 20000101.011300   , step     73; iteration    1; sweep 1 grid   1
+time 20000101.011300   , step     73; iteration    1; sweep 2 grid   1
+time 20000101.011300   , step     73; iteration    1; sweep 3 grid   1
+time 20000101.011300   , step     73; iteration    1; sweep 4 grid   1
 not possible to compute, first iteration


 Time of computation ->  20000101.011400      in sec:       4440.
+time 20000101.011400   , step     74; iteration    1; sweep 1 grid   1
+time 20000101.011400   , step     74; iteration    1; sweep 2 grid   1
+time 20000101.011400   , step     74; iteration    1; sweep 3 grid   1
+time 20000101.011400   , step     74; iteration    1; sweep 4 grid   1
 not possible to compute, first iteration


 Time of computation ->  20000101.011500      in sec:       4500.
+time 20000101.011500   , step     75; iteration    1; sweep 1 grid   1
+time 20000101.011500   , step     75; iteration    1; sweep 2 grid   1
+time 20000101.011500   , step     75; iteration    1; sweep 3 grid   1
+time 20000101.011500   , step     75; iteration    1; sweep 4 grid   1
 not possible to compute, first iteration


 Time of computation ->  20000101.011600      in sec:       4560.
+time 20000101.011600   , step     76; iteration    1; sweep 1 grid   1
+time 20000101.011600   , step     76; iteration    1; sweep 2 grid   1
+time 20000101.011600   , step     76; iteration    1; sweep 3 grid   1
+time 20000101.011600   , step     76; iteration    1; sweep 4 grid   1
 not possible to compute, first iteration


 Time of computation ->  20000101.011700      in sec:       4620.
+time 20000101.011700   , step     77; iteration    1; sweep 1 grid   1
+time 20000101.011700   , step     77; iteration    1; sweep 2 grid   1
+time 20000101.011700   , step     77; iteration    1; sweep 3 grid   1
+time 20000101.011700   , step     77; iteration    1; sweep 4 grid   1
 not possible to compute, first iteration


 Time of computation ->  20000101.011800      in sec:       4680.
+time 20000101.011800   , step     78; iteration    1; sweep 1 grid   1
+time 20000101.011800   , step     78; iteration    1; sweep 2 grid   1
+time 20000101.011800   , step     78; iteration    1; sweep 3 grid   1
+time 20000101.011800   , step     78; iteration    1; sweep 4 grid   1
 not possible to compute, first iteration


 Time of computation ->  20000101.011900      in sec:       4740.
+time 20000101.011900   , step     79; iteration    1; sweep 1 grid   1
+time 20000101.011900   , step     79; iteration    1; sweep 2 grid   1
+time 20000101.011900   , step     79; iteration    1; sweep 3 grid   1
+time 20000101.011900   , step     79; iteration    1; sweep 4 grid   1
 not possible to compute, first iteration


 Time of computation ->  20000101.012000      in sec:       4800.
+time 20000101.012000   , step     80; iteration    1; sweep 1 grid   1
+time 20000101.012000   , step     80; iteration    1; sweep 2 grid   1
+time 20000101.012000   , step     80; iteration    1; sweep 3 grid   1
+time 20000101.012000   , step     80; iteration    1; sweep 4 grid   1
 not possible to compute, first iteration


 Time of computation ->  20000101.012100      in sec:       4860.
+time 20000101.012100   , step     81; iteration    1; sweep 1 grid   1
+time 20000101.012100   , step     81; iteration    1; sweep 2 grid   1
+time 20000101.012100   , step     81; iteration    1; sweep 3 grid   1
+time 20000101.012100   , step     81; iteration    1; sweep 4 grid   1
 not possible to compute, first iteration


 Time of computation ->  20000101.012200      in sec:       4920.
+time 20000101.012200   , step     82; iteration    1; sweep 1 grid   1
+time 20000101.012200   , step     82; iteration    1; sweep 2 grid   1
+time 20000101.012200   , step     82; iteration    1; sweep 3 grid   1
+time 20000101.012200   , step     82; iteration    1; sweep 4 grid   1
 not possible to compute, first iteration


 Time of computation ->  20000101.012300      in sec:       4980.
+time 20000101.012300   , step     83; iteration    1; sweep 1 grid   1
+time 20000101.012300   , step     83; iteration    1; sweep 2 grid   1
+time 20000101.012300   , step     83; iteration    1; sweep 3 grid   1
+time 20000101.012300   , step     83; iteration    1; sweep 4 grid   1
 not possible to compute, first iteration


 Time of computation ->  20000101.012400      in sec:       5040.
+time 20000101.012400   , step     84; iteration    1; sweep 1 grid   1
+time 20000101.012400   , step     84; iteration    1; sweep 2 grid   1
+time 20000101.012400   , step     84; iteration    1; sweep 3 grid   1
+time 20000101.012400   , step     84; iteration    1; sweep 4 grid   1
 not possible to compute, first iteration


 Time of computation ->  20000101.012500      in sec:       5100.
+time 20000101.012500   , step     85; iteration    1; sweep 1 grid   1
+time 20000101.012500   , step     85; iteration    1; sweep 2 grid   1
+time 20000101.012500   , step     85; iteration    1; sweep 3 grid   1
+time 20000101.012500   , step     85; iteration    1; sweep 4 grid   1
 not possible to compute, first iteration


 Time of computation ->  20000101.012600      in sec:       5160.
+time 20000101.012600   , step     86; iteration    1; sweep 1 grid   1
+time 20000101.012600   , step     86; iteration    1; sweep 2 grid   1
+time 20000101.012600   , step     86; iteration    1; sweep 3 grid   1
+time 20000101.012600   , step     86; iteration    1; sweep 4 grid   1
 not possible to compute, first iteration


 Time of computation ->  20000101.012700      in sec:       5220.
+time 20000101.012700   , step     87; iteration    1; sweep 1 grid   1
+time 20000101.012700   , step     87; iteration    1; sweep 2 grid   1
+time 20000101.012700   , step     87; iteration    1; sweep 3 grid   1
+time 20000101.012700   , step     87; iteration    1; sweep 4 grid   1
 not possible to compute, first iteration


 Time of computation ->  20000101.012800      in sec:       5280.
+time 20000101.012800   , step     88; iteration    1; sweep 1 grid   1
+time 20000101.012800   , step     88; iteration    1; sweep 2 grid   1
+time 20000101.012800   , step     88; iteration    1; sweep 3 grid   1
+time 20000101.012800   , step     88; iteration    1; sweep 4 grid   1
 not possible to compute, first iteration


 Time of computation ->  20000101.012900      in sec:       5340.
+time 20000101.012900   , step     89; iteration    1; sweep 1 grid   1
+time 20000101.012900   , step     89; iteration    1; sweep 2 grid   1
+time 20000101.012900   , step     89; iteration    1; sweep 3 grid   1
+time 20000101.012900   , step     89; iteration    1; sweep 4 grid   1
 not possible to compute, first iteration


 Time of computation ->  20000101.013000      in sec:       5400.
+time 20000101.013000   , step     90; iteration    1; sweep 1 grid   1
+time 20000101.013000   , step     90; iteration    1; sweep 2 grid   1
+time 20000101.013000   , step     90; iteration    1; sweep 3 grid   1
+time 20000101.013000   , step     90; iteration    1; sweep 4 grid   1
 not possible to compute, first iteration


 Time of computation ->  20000101.013100      in sec:       5460.
+time 20000101.013100   , step     91; iteration    1; sweep 1 grid   1
+time 20000101.013100   , step     91; iteration    1; sweep 2 grid   1
+time 20000101.013100   , step     91; iteration    1; sweep 3 grid   1
+time 20000101.013100   , step     91; iteration    1; sweep 4 grid   1
 not possible to compute, first iteration


 Time of computation ->  20000101.013200      in sec:       5520.
+time 20000101.013200   , step     92; iteration    1; sweep 1 grid   1
+time 20000101.013200   , step     92; iteration    1; sweep 2 grid   1
+time 20000101.013200   , step     92; iteration    1; sweep 3 grid   1
+time 20000101.013200   , step     92; iteration    1; sweep 4 grid   1
 not possible to compute, first iteration


 Time of computation ->  20000101.013300      in sec:       5580.
+time 20000101.013300   , step     93; iteration    1; sweep 1 grid   1
+time 20000101.013300   , step     93; iteration    1; sweep 2 grid   1
+time 20000101.013300   , step     93; iteration    1; sweep 3 grid   1
+time 20000101.013300   , step     93; iteration    1; sweep 4 grid   1
 not possible to compute, first iteration


 Time of computation ->  20000101.013400      in sec:       5640.
+time 20000101.013400   , step     94; iteration    1; sweep 1 grid   1
+time 20000101.013400   , step     94; iteration    1; sweep 2 grid   1
+time 20000101.013400   , step     94; iteration    1; sweep 3 grid   1
+time 20000101.013400   , step     94; iteration    1; sweep 4 grid   1
 not possible to compute, first iteration


 Time of computation ->  20000101.013500      in sec:       5700.
+time 20000101.013500   , step     95; iteration    1; sweep 1 grid   1
+time 20000101.013500   , step     95; iteration    1; sweep 2 grid   1
+time 20000101.013500   , step     95; iteration    1; sweep 3 grid   1
+time 20000101.013500   , step     95; iteration    1; sweep 4 grid   1
 not possible to compute, first iteration


 Time of computation ->  20000101.013600      in sec:       5760.
+time 20000101.013600   , step     96; iteration    1; sweep 1 grid   1
+time 20000101.013600   , step     96; iteration    1; sweep 2 grid   1
+time 20000101.013600   , step     96; iteration    1; sweep 3 grid   1
+time 20000101.013600   , step     96; iteration    1; sweep 4 grid   1
 not possible to compute, first iteration


 Time of computation ->  20000101.013700      in sec:       5820.
+time 20000101.013700   , step     97; iteration    1; sweep 1 grid   1
+time 20000101.013700   , step     97; iteration    1; sweep 2 grid   1
+time 20000101.013700   , step     97; iteration    1; sweep 3 grid   1
+time 20000101.013700   , step     97; iteration    1; sweep 4 grid   1
 not possible to compute, first iteration


 Time of computation ->  20000101.013800      in sec:       5880.
+time 20000101.013800   , step     98; iteration    1; sweep 1 grid   1
+time 20000101.013800   , step     98; iteration    1; sweep 2 grid   1
+time 20000101.013800   , step     98; iteration    1; sweep 3 grid   1
+time 20000101.013800   , step     98; iteration    1; sweep 4 grid   1
 not possible to compute, first iteration


 Time of computation ->  20000101.013900      in sec:       5940.
+time 20000101.013900   , step     99; iteration    1; sweep 1 grid   1
+time 20000101.013900   , step     99; iteration    1; sweep 2 grid   1
+time 20000101.013900   , step     99; iteration    1; sweep 3 grid   1
+time 20000101.013900   , step     99; iteration    1; sweep 4 grid   1
 not possible to compute, first iteration


 Time of computation ->  20000101.014000      in sec:       6000.
+time 20000101.014000   , step    100; iteration    1; sweep 1 grid   1
+time 20000101.014000   , step    100; iteration    1; sweep 2 grid   1
+time 20000101.014000   , step    100; iteration    1; sweep 3 grid   1
+time 20000101.014000   , step    100; iteration    1; sweep 4 grid   1
 not possible to compute, first iteration


 Time of computation ->  20000101.014100      in sec:       6060.
+time 20000101.014100   , step    101; iteration    1; sweep 1 grid   1
+time 20000101.014100   , step    101; iteration    1; sweep 2 grid   1
+time 20000101.014100   , step    101; iteration    1; sweep 3 grid   1
+time 20000101.014100   , step    101; iteration    1; sweep 4 grid   1
 not possible to compute, first iteration


 Time of computation ->  20000101.014200      in sec:       6120.
+time 20000101.014200   , step    102; iteration    1; sweep 1 grid   1
+time 20000101.014200   , step    102; iteration    1; sweep 2 grid   1
+time 20000101.014200   , step    102; iteration    1; sweep 3 grid   1
+time 20000101.014200   , step    102; iteration    1; sweep 4 grid   1
 not possible to compute, first iteration


 Time of computation ->  20000101.014300      in sec:       6180.
+time 20000101.014300   , step    103; iteration    1; sweep 1 grid   1
+time 20000101.014300   , step    103; iteration    1; sweep 2 grid   1
+time 20000101.014300   , step    103; iteration    1; sweep 3 grid   1
+time 20000101.014300   , step    103; iteration    1; sweep 4 grid   1
 not possible to compute, first iteration


 Time of computation ->  20000101.014400      in sec:       6240.
+time 20000101.014400   , step    104; iteration    1; sweep 1 grid   1
+time 20000101.014400   , step    104; iteration    1; sweep 2 grid   1
+time 20000101.014400   , step    104; iteration    1; sweep 3 grid   1
+time 20000101.014400   , step    104; iteration    1; sweep 4 grid   1
 not possible to compute, first iteration


 Time of computation ->  20000101.014500      in sec:       6300.
+time 20000101.014500   , step    105; iteration    1; sweep 1 grid   1
+time 20000101.014500   , step    105; iteration    1; sweep 2 grid   1
+time 20000101.014500   , step    105; iteration    1; sweep 3 grid   1
+time 20000101.014500   , step    105; iteration    1; sweep 4 grid   1
 not possible to compute, first iteration


 Time of computation ->  20000101.014600      in sec:       6360.
+time 20000101.014600   , step    106; iteration    1; sweep 1 grid   1
+time 20000101.014600   , step    106; iteration    1; sweep 2 grid   1
+time 20000101.014600   , step    106; iteration    1; sweep 3 grid   1
+time 20000101.014600   , step    106; iteration    1; sweep 4 grid   1
 not possible to compute, first iteration


 Time of computation ->  20000101.014700      in sec:       6420.
+time 20000101.014700   , step    107; iteration    1; sweep 1 grid   1
+time 20000101.014700   , step    107; iteration    1; sweep 2 grid   1
+time 20000101.014700   , step    107; iteration    1; sweep 3 grid   1
+time 20000101.014700   , step    107; iteration    1; sweep 4 grid   1
 not possible to compute, first iteration


 Time of computation ->  20000101.014800      in sec:       6480.
+time 20000101.014800   , step    108; iteration    1; sweep 1 grid   1
+time 20000101.014800   , step    108; iteration    1; sweep 2 grid   1
+time 20000101.014800   , step    108; iteration    1; sweep 3 grid   1
+time 20000101.014800   , step    108; iteration    1; sweep 4 grid   1
 not possible to compute, first iteration


 Time of computation ->  20000101.014900      in sec:       6540.
+time 20000101.014900   , step    109; iteration    1; sweep 1 grid   1
+time 20000101.014900   , step    109; iteration    1; sweep 2 grid   1
+time 20000101.014900   , step    109; iteration    1; sweep 3 grid   1
+time 20000101.014900   , step    109; iteration    1; sweep 4 grid   1
 not possible to compute, first iteration


 Time of computation ->  20000101.015000      in sec:       6600.
+time 20000101.015000   , step    110; iteration    1; sweep 1 grid   1
+time 20000101.015000   , step    110; iteration    1; sweep 2 grid   1
+time 20000101.015000   , step    110; iteration    1; sweep 3 grid   1
+time 20000101.015000   , step    110; iteration    1; sweep 4 grid   1
 not possible to compute, first iteration


 Time of computation ->  20000101.015100      in sec:       6660.
+time 20000101.015100   , step    111; iteration    1; sweep 1 grid   1
+time 20000101.015100   , step    111; iteration    1; sweep 2 grid   1
+time 20000101.015100   , step    111; iteration    1; sweep 3 grid   1
+time 20000101.015100   , step    111; iteration    1; sweep 4 grid   1
 not possible to compute, first iteration


 Time of computation ->  20000101.015200      in sec:       6720.
+time 20000101.015200   , step    112; iteration    1; sweep 1 grid   1
+time 20000101.015200   , step    112; iteration    1; sweep 2 grid   1
+time 20000101.015200   , step    112; iteration    1; sweep 3 grid   1
+time 20000101.015200   , step    112; iteration    1; sweep 4 grid   1
 not possible to compute, first iteration


 Time of computation ->  20000101.015300      in sec:       6780.
+time 20000101.015300   , step    113; iteration    1; sweep 1 grid   1
+time 20000101.015300   , step    113; iteration    1; sweep 2 grid   1
+time 20000101.015300   , step    113; iteration    1; sweep 3 grid   1
+time 20000101.015300   , step    113; iteration    1; sweep 4 grid   1
 not possible to compute, first iteration


 Time of computation ->  20000101.015400      in sec:       6840.
+time 20000101.015400   , step    114; iteration    1; sweep 1 grid   1
+time 20000101.015400   , step    114; iteration    1; sweep 2 grid   1
+time 20000101.015400   , step    114; iteration    1; sweep 3 grid   1
+time 20000101.015400   , step    114; iteration    1; sweep 4 grid   1
 not possible to compute, first iteration


 Time of computation ->  20000101.015500      in sec:       6900.
+time 20000101.015500   , step    115; iteration    1; sweep 1 grid   1
+time 20000101.015500   , step    115; iteration    1; sweep 2 grid   1
+time 20000101.015500   , step    115; iteration    1; sweep 3 grid   1
+time 20000101.015500   , step    115; iteration    1; sweep 4 grid   1
 not possible to compute, first iteration


 Time of computation ->  20000101.015600      in sec:       6960.
+time 20000101.015600   , step    116; iteration    1; sweep 1 grid   1
+time 20000101.015600   , step    116; iteration    1; sweep 2 grid   1
+time 20000101.015600   , step    116; iteration    1; sweep 3 grid   1
+time 20000101.015600   , step    116; iteration    1; sweep 4 grid   1
 not possible to compute, first iteration


 Time of computation ->  20000101.015700      in sec:       7020.
+time 20000101.015700   , step    117; iteration    1; sweep 1 grid   1
+time 20000101.015700   , step    117; iteration    1; sweep 2 grid   1
+time 20000101.015700   , step    117; iteration    1; sweep 3 grid   1
+time 20000101.015700   , step    117; iteration    1; sweep 4 grid   1
 not possible to compute, first iteration


 Time of computation ->  20000101.015800      in sec:       7080.
+time 20000101.015800   , step    118; iteration    1; sweep 1 grid   1
+time 20000101.015800   , step    118; iteration    1; sweep 2 grid   1
+time 20000101.015800   , step    118; iteration    1; sweep 3 grid   1
+time 20000101.015800   , step    118; iteration    1; sweep 4 grid   1
 not possible to compute, first iteration


 Time of computation ->  20000101.015900      in sec:       7140.
+time 20000101.015900   , step    119; iteration    1; sweep 1 grid   1
+time 20000101.015900   , step    119; iteration    1; sweep 2 grid   1
+time 20000101.015900   , step    119; iteration    1; sweep 3 grid   1
+time 20000101.015900   , step    119; iteration    1; sweep 4 grid   1
 not possible to compute, first iteration


 Time of computation ->  20000101.020000      in sec:       7200.
+time 20000101.020000   , step    120; iteration    1; sweep 1 grid   1
+time 20000101.020000   , step    120; iteration    1; sweep 2 grid   1
+time 20000101.020000   , step    120; iteration    1; sweep 3 grid   1
+time 20000101.020000   , step    120; iteration    1; sweep 4 grid   1
 not possible to compute, first iteration


+SWAN is processing output request    1
+SWAN is processing output request    2
+SWAN is processing output request    3
+SWAN is processing output request    4
+SWAN is processing output request    5
+SWAN is processing output request    6
+SWAN is processing output request    7
+SWAN is processing output request    8
+SWAN is processing output request    9
+SWAN is processing output request   10
+SWAN is processing output request   11
+SWAN is processing output request   12
+SWAN is processing output request   13
+SWAN is processing output request   14
+SWAN is processing output request   17
+SWAN is processing output request   18
+SWAN is processing output request   19
 Time of computation ->  20000101.020100      in sec:       7260.
+time 20000101.020100   , step    121; iteration    1; sweep 1 grid   1
+time 20000101.020100   , step    121; iteration    1; sweep 2 grid   1
+time 20000101.020100   , step    121; iteration    1; sweep 3 grid   1
+time 20000101.020100   , step    121; iteration    1; sweep 4 grid   1
 not possible to compute, first iteration


 Time of computation ->  20000101.020200      in sec:       7320.
+time 20000101.020200   , step    122; iteration    1; sweep 1 grid   1
+time 20000101.020200   , step    122; iteration    1; sweep 2 grid   1
+time 20000101.020200   , step    122; iteration    1; sweep 3 grid   1
+time 20000101.020200   , step    122; iteration    1; sweep 4 grid   1
 not possible to compute, first iteration


 Time of computation ->  20000101.020300      in sec:       7380.
+time 20000101.020300   , step    123; iteration    1; sweep 1 grid   1
+time 20000101.020300   , step    123; iteration    1; sweep 2 grid   1
+time 20000101.020300   , step    123; iteration    1; sweep 3 grid   1
+time 20000101.020300   , step    123; iteration    1; sweep 4 grid   1
 not possible to compute, first iteration


 Time of computation ->  20000101.020400      in sec:       7440.
+time 20000101.020400   , step    124; iteration    1; sweep 1 grid   1
+time 20000101.020400   , step    124; iteration    1; sweep 2 grid   1
+time 20000101.020400   , step    124; iteration    1; sweep 3 grid   1
+time 20000101.020400   , step    124; iteration    1; sweep 4 grid   1
 not possible to compute, first iteration


 Time of computation ->  20000101.020500      in sec:       7500.
+time 20000101.020500   , step    125; iteration    1; sweep 1 grid   1
+time 20000101.020500   , step    125; iteration    1; sweep 2 grid   1
+time 20000101.020500   , step    125; iteration    1; sweep 3 grid   1
+time 20000101.020500   , step    125; iteration    1; sweep 4 grid   1
 not possible to compute, first iteration


 Time of computation ->  20000101.020600      in sec:       7560.
+time 20000101.020600   , step    126; iteration    1; sweep 1 grid   1
+time 20000101.020600   , step    126; iteration    1; sweep 2 grid   1
+time 20000101.020600   , step    126; iteration    1; sweep 3 grid   1
+time 20000101.020600   , step    126; iteration    1; sweep 4 grid   1
 not possible to compute, first iteration


 Time of computation ->  20000101.020700      in sec:       7620.
+time 20000101.020700   , step    127; iteration    1; sweep 1 grid   1
+time 20000101.020700   , step    127; iteration    1; sweep 2 grid   1
+time 20000101.020700   , step    127; iteration    1; sweep 3 grid   1
+time 20000101.020700   , step    127; iteration    1; sweep 4 grid   1
 not possible to compute, first iteration


 Time of computation ->  20000101.020800      in sec:       7680.
+time 20000101.020800   , step    128; iteration    1; sweep 1 grid   1
+time 20000101.020800   , step    128; iteration    1; sweep 2 grid   1
+time 20000101.020800   , step    128; iteration    1; sweep 3 grid   1
+time 20000101.020800   , step    128; iteration    1; sweep 4 grid   1
 not possible to compute, first iteration


 Time of computation ->  20000101.020900      in sec:       7740.
+time 20000101.020900   , step    129; iteration    1; sweep 1 grid   1
+time 20000101.020900   , step    129; iteration    1; sweep 2 grid   1
+time 20000101.020900   , step    129; iteration    1; sweep 3 grid   1
+time 20000101.020900   , step    129; iteration    1; sweep 4 grid   1
 not possible to compute, first iteration


 Time of computation ->  20000101.021000      in sec:       7800.
+time 20000101.021000   , step    130; iteration    1; sweep 1 grid   1
+time 20000101.021000   , step    130; iteration    1; sweep 2 grid   1
+time 20000101.021000   , step    130; iteration    1; sweep 3 grid   1
+time 20000101.021000   , step    130; iteration    1; sweep 4 grid   1
 not possible to compute, first iteration


 Time of computation ->  20000101.021100      in sec:       7860.
+time 20000101.021100   , step    131; iteration    1; sweep 1 grid   1
+time 20000101.021100   , step    131; iteration    1; sweep 2 grid   1
+time 20000101.021100   , step    131; iteration    1; sweep 3 grid   1
+time 20000101.021100   , step    131; iteration    1; sweep 4 grid   1
 not possible to compute, first iteration


 Time of computation ->  20000101.021200      in sec:       7920.
+time 20000101.021200   , step    132; iteration    1; sweep 1 grid   1
+time 20000101.021200   , step    132; iteration    1; sweep 2 grid   1
+time 20000101.021200   , step    132; iteration    1; sweep 3 grid   1
+time 20000101.021200   , step    132; iteration    1; sweep 4 grid   1
 not possible to compute, first iteration


 Time of computation ->  20000101.021300      in sec:       7980.
+time 20000101.021300   , step    133; iteration    1; sweep 1 grid   1
+time 20000101.021300   , step    133; iteration    1; sweep 2 grid   1
+time 20000101.021300   , step    133; iteration    1; sweep 3 grid   1
+time 20000101.021300   , step    133; iteration    1; sweep 4 grid   1
 not possible to compute, first iteration


 Time of computation ->  20000101.021400      in sec:       8040.
+time 20000101.021400   , step    134; iteration    1; sweep 1 grid   1
+time 20000101.021400   , step    134; iteration    1; sweep 2 grid   1
+time 20000101.021400   , step    134; iteration    1; sweep 3 grid   1
+time 20000101.021400   , step    134; iteration    1; sweep 4 grid   1
 not possible to compute, first iteration


 Time of computation ->  20000101.021500      in sec:       8100.
+time 20000101.021500   , step    135; iteration    1; sweep 1 grid   1
+time 20000101.021500   , step    135; iteration    1; sweep 2 grid   1
+time 20000101.021500   , step    135; iteration    1; sweep 3 grid   1
+time 20000101.021500   , step    135; iteration    1; sweep 4 grid   1
 not possible to compute, first iteration


 Time of computation ->  20000101.021600      in sec:       8160.
+time 20000101.021600   , step    136; iteration    1; sweep 1 grid   1
+time 20000101.021600   , step    136; iteration    1; sweep 2 grid   1
+time 20000101.021600   , step    136; iteration    1; sweep 3 grid   1
+time 20000101.021600   , step    136; iteration    1; sweep 4 grid   1
 not possible to compute, first iteration


 Time of computation ->  20000101.021700      in sec:       8220.
+time 20000101.021700   , step    137; iteration    1; sweep 1 grid   1
+time 20000101.021700   , step    137; iteration    1; sweep 2 grid   1
+time 20000101.021700   , step    137; iteration    1; sweep 3 grid   1
+time 20000101.021700   , step    137; iteration    1; sweep 4 grid   1
 not possible to compute, first iteration


 Time of computation ->  20000101.021800      in sec:       8280.
+time 20000101.021800   , step    138; iteration    1; sweep 1 grid   1
+time 20000101.021800   , step    138; iteration    1; sweep 2 grid   1
+time 20000101.021800   , step    138; iteration    1; sweep 3 grid   1
+time 20000101.021800   , step    138; iteration    1; sweep 4 grid   1
 not possible to compute, first iteration


 Time of computation ->  20000101.021900      in sec:       8340.
+time 20000101.021900   , step    139; iteration    1; sweep 1 grid   1
+time 20000101.021900   , step    139; iteration    1; sweep 2 grid   1
+time 20000101.021900   , step    139; iteration    1; sweep 3 grid   1
+time 20000101.021900   , step    139; iteration    1; sweep 4 grid   1
 not possible to compute, first iteration


 Time of computation ->  20000101.022000      in sec:       8400.
+time 20000101.022000   , step    140; iteration    1; sweep 1 grid   1
+time 20000101.022000   , step    140; iteration    1; sweep 2 grid   1
+time 20000101.022000   , step    140; iteration    1; sweep 3 grid   1
+time 20000101.022000   , step    140; iteration    1; sweep 4 grid   1
 not possible to compute, first iteration


 Time of computation ->  20000101.022100      in sec:       8460.
+time 20000101.022100   , step    141; iteration    1; sweep 1 grid   1
+time 20000101.022100   , step    141; iteration    1; sweep 2 grid   1
+time 20000101.022100   , step    141; iteration    1; sweep 3 grid   1
+time 20000101.022100   , step    141; iteration    1; sweep 4 grid   1
 not possible to compute, first iteration


 Time of computation ->  20000101.022200      in sec:       8520.
+time 20000101.022200   , step    142; iteration    1; sweep 1 grid   1
+time 20000101.022200   , step    142; iteration    1; sweep 2 grid   1
+time 20000101.022200   , step    142; iteration    1; sweep 3 grid   1
+time 20000101.022200   , step    142; iteration    1; sweep 4 grid   1
 not possible to compute, first iteration


 Time of computation ->  20000101.022300      in sec:       8580.
+time 20000101.022300   , step    143; iteration    1; sweep 1 grid   1
+time 20000101.022300   , step    143; iteration    1; sweep 2 grid   1
+time 20000101.022300   , step    143; iteration    1; sweep 3 grid   1
+time 20000101.022300   , step    143; iteration    1; sweep 4 grid   1
 not possible to compute, first iteration


 Time of computation ->  20000101.022400      in sec:       8640.
+time 20000101.022400   , step    144; iteration    1; sweep 1 grid   1
+time 20000101.022400   , step    144; iteration    1; sweep 2 grid   1
+time 20000101.022400   , step    144; iteration    1; sweep 3 grid   1
+time 20000101.022400   , step    144; iteration    1; sweep 4 grid   1
 not possible to compute, first iteration


 Time of computation ->  20000101.022500      in sec:       8700.
+time 20000101.022500   , step    145; iteration    1; sweep 1 grid   1
+time 20000101.022500   , step    145; iteration    1; sweep 2 grid   1
+time 20000101.022500   , step    145; iteration    1; sweep 3 grid   1
+time 20000101.022500   , step    145; iteration    1; sweep 4 grid   1
 not possible to compute, first iteration


 Time of computation ->  20000101.022600      in sec:       8760.
+time 20000101.022600   , step    146; iteration    1; sweep 1 grid   1
+time 20000101.022600   , step    146; iteration    1; sweep 2 grid   1
+time 20000101.022600   , step    146; iteration    1; sweep 3 grid   1
+time 20000101.022600   , step    146; iteration    1; sweep 4 grid   1
 not possible to compute, first iteration


 Time of computation ->  20000101.022700      in sec:       8820.
+time 20000101.022700   , step    147; iteration    1; sweep 1 grid   1
+time 20000101.022700   , step    147; iteration    1; sweep 2 grid   1
+time 20000101.022700   , step    147; iteration    1; sweep 3 grid   1
+time 20000101.022700   , step    147; iteration    1; sweep 4 grid   1
 not possible to compute, first iteration


 Time of computation ->  20000101.022800      in sec:       8880.
+time 20000101.022800   , step    148; iteration    1; sweep 1 grid   1
+time 20000101.022800   , step    148; iteration    1; sweep 2 grid   1
+time 20000101.022800   , step    148; iteration    1; sweep 3 grid   1
+time 20000101.022800   , step    148; iteration    1; sweep 4 grid   1
 not possible to compute, first iteration


 Time of computation ->  20000101.022900      in sec:       8940.
+time 20000101.022900   , step    149; iteration    1; sweep 1 grid   1
+time 20000101.022900   , step    149; iteration    1; sweep 2 grid   1
+time 20000101.022900   , step    149; iteration    1; sweep 3 grid   1
+time 20000101.022900   , step    149; iteration    1; sweep 4 grid   1
 not possible to compute, first iteration


 Time of computation ->  20000101.023000      in sec:       9000.
+time 20000101.023000   , step    150; iteration    1; sweep 1 grid   1
+time 20000101.023000   , step    150; iteration    1; sweep 2 grid   1
+time 20000101.023000   , step    150; iteration    1; sweep 3 grid   1
+time 20000101.023000   , step    150; iteration    1; sweep 4 grid   1
 not possible to compute, first iteration


 Time of computation ->  20000101.023100      in sec:       9060.
+time 20000101.023100   , step    151; iteration    1; sweep 1 grid   1
+time 20000101.023100   , step    151; iteration    1; sweep 2 grid   1
+time 20000101.023100   , step    151; iteration    1; sweep 3 grid   1
+time 20000101.023100   , step    151; iteration    1; sweep 4 grid   1
 not possible to compute, first iteration


 Time of computation ->  20000101.023200      in sec:       9120.
+time 20000101.023200   , step    152; iteration    1; sweep 1 grid   1
+time 20000101.023200   , step    152; iteration    1; sweep 2 grid   1
+time 20000101.023200   , step    152; iteration    1; sweep 3 grid   1
+time 20000101.023200   , step    152; iteration    1; sweep 4 grid   1
 not possible to compute, first iteration


 Time of computation ->  20000101.023300      in sec:       9180.
+time 20000101.023300   , step    153; iteration    1; sweep 1 grid   1
+time 20000101.023300   , step    153; iteration    1; sweep 2 grid   1
+time 20000101.023300   , step    153; iteration    1; sweep 3 grid   1
+time 20000101.023300   , step    153; iteration    1; sweep 4 grid   1
 not possible to compute, first iteration


 Time of computation ->  20000101.023400      in sec:       9240.
+time 20000101.023400   , step    154; iteration    1; sweep 1 grid   1
+time 20000101.023400   , step    154; iteration    1; sweep 2 grid   1
+time 20000101.023400   , step    154; iteration    1; sweep 3 grid   1
+time 20000101.023400   , step    154; iteration    1; sweep 4 grid   1
 not possible to compute, first iteration


 Time of computation ->  20000101.023500      in sec:       9300.
+time 20000101.023500   , step    155; iteration    1; sweep 1 grid   1
+time 20000101.023500   , step    155; iteration    1; sweep 2 grid   1
+time 20000101.023500   , step    155; iteration    1; sweep 3 grid   1
+time 20000101.023500   , step    155; iteration    1; sweep 4 grid   1
 not possible to compute, first iteration


 Time of computation ->  20000101.023600      in sec:       9360.
+time 20000101.023600   , step    156; iteration    1; sweep 1 grid   1
+time 20000101.023600   , step    156; iteration    1; sweep 2 grid   1
+time 20000101.023600   , step    156; iteration    1; sweep 3 grid   1
+time 20000101.023600   , step    156; iteration    1; sweep 4 grid   1
 not possible to compute, first iteration


 Time of computation ->  20000101.023700      in sec:       9420.
+time 20000101.023700   , step    157; iteration    1; sweep 1 grid   1
+time 20000101.023700   , step    157; iteration    1; sweep 2 grid   1
+time 20000101.023700   , step    157; iteration    1; sweep 3 grid   1
+time 20000101.023700   , step    157; iteration    1; sweep 4 grid   1
 not possible to compute, first iteration


 Time of computation ->  20000101.023800      in sec:       9480.
+time 20000101.023800   , step    158; iteration    1; sweep 1 grid   1
+time 20000101.023800   , step    158; iteration    1; sweep 2 grid   1
+time 20000101.023800   , step    158; iteration    1; sweep 3 grid   1
+time 20000101.023800   , step    158; iteration    1; sweep 4 grid   1
 not possible to compute, first iteration


 Time of computation ->  20000101.023900      in sec:       9540.
+time 20000101.023900   , step    159; iteration    1; sweep 1 grid   1
+time 20000101.023900   , step    159; iteration    1; sweep 2 grid   1
+time 20000101.023900   , step    159; iteration    1; sweep 3 grid   1
+time 20000101.023900   , step    159; iteration    1; sweep 4 grid   1
 not possible to compute, first iteration


 Time of computation ->  20000101.024000      in sec:       9600.
+time 20000101.024000   , step    160; iteration    1; sweep 1 grid   1
+time 20000101.024000   , step    160; iteration    1; sweep 2 grid   1
+time 20000101.024000   , step    160; iteration    1; sweep 3 grid   1
+time 20000101.024000   , step    160; iteration    1; sweep 4 grid   1
 not possible to compute, first iteration


 Time of computation ->  20000101.024100      in sec:       9660.
+time 20000101.024100   , step    161; iteration    1; sweep 1 grid   1
+time 20000101.024100   , step    161; iteration    1; sweep 2 grid   1
+time 20000101.024100   , step    161; iteration    1; sweep 3 grid   1
+time 20000101.024100   , step    161; iteration    1; sweep 4 grid   1
 not possible to compute, first iteration


 Time of computation ->  20000101.024200      in sec:       9720.
+time 20000101.024200   , step    162; iteration    1; sweep 1 grid   1
+time 20000101.024200   , step    162; iteration    1; sweep 2 grid   1
+time 20000101.024200   , step    162; iteration    1; sweep 3 grid   1
+time 20000101.024200   , step    162; iteration    1; sweep 4 grid   1
 not possible to compute, first iteration


 Time of computation ->  20000101.024300      in sec:       9780.
+time 20000101.024300   , step    163; iteration    1; sweep 1 grid   1
+time 20000101.024300   , step    163; iteration    1; sweep 2 grid   1
+time 20000101.024300   , step    163; iteration    1; sweep 3 grid   1
+time 20000101.024300   , step    163; iteration    1; sweep 4 grid   1
 not possible to compute, first iteration


 Time of computation ->  20000101.024400      in sec:       9840.
+time 20000101.024400   , step    164; iteration    1; sweep 1 grid   1
+time 20000101.024400   , step    164; iteration    1; sweep 2 grid   1
+time 20000101.024400   , step    164; iteration    1; sweep 3 grid   1
+time 20000101.024400   , step    164; iteration    1; sweep 4 grid   1
 not possible to compute, first iteration


 Time of computation ->  20000101.024500      in sec:       9900.
+time 20000101.024500   , step    165; iteration    1; sweep 1 grid   1
+time 20000101.024500   , step    165; iteration    1; sweep 2 grid   1
+time 20000101.024500   , step    165; iteration    1; sweep 3 grid   1
+time 20000101.024500   , step    165; iteration    1; sweep 4 grid   1
 not possible to compute, first iteration


 Time of computation ->  20000101.024600      in sec:       9960.
+time 20000101.024600   , step    166; iteration    1; sweep 1 grid   1
+time 20000101.024600   , step    166; iteration    1; sweep 2 grid   1
+time 20000101.024600   , step    166; iteration    1; sweep 3 grid   1
+time 20000101.024600   , step    166; iteration    1; sweep 4 grid   1
 not possible to compute, first iteration


 Time of computation ->  20000101.024700      in sec:      10020.
+time 20000101.024700   , step    167; iteration    1; sweep 1 grid   1
+time 20000101.024700   , step    167; iteration    1; sweep 2 grid   1
+time 20000101.024700   , step    167; iteration    1; sweep 3 grid   1
+time 20000101.024700   , step    167; iteration    1; sweep 4 grid   1
 not possible to compute, first iteration


 Time of computation ->  20000101.024800      in sec:      10080.
+time 20000101.024800   , step    168; iteration    1; sweep 1 grid   1
+time 20000101.024800   , step    168; iteration    1; sweep 2 grid   1
+time 20000101.024800   , step    168; iteration    1; sweep 3 grid   1
+time 20000101.024800   , step    168; iteration    1; sweep 4 grid   1
 not possible to compute, first iteration


 Time of computation ->  20000101.024900      in sec:      10140.
+time 20000101.024900   , step    169; iteration    1; sweep 1 grid   1
+time 20000101.024900   , step    169; iteration    1; sweep 2 grid   1
+time 20000101.024900   , step    169; iteration    1; sweep 3 grid   1
+time 20000101.024900   , step    169; iteration    1; sweep 4 grid   1
 not possible to compute, first iteration


 Time of computation ->  20000101.025000      in sec:      10200.
+time 20000101.025000   , step    170; iteration    1; sweep 1 grid   1
+time 20000101.025000   , step    170; iteration    1; sweep 2 grid   1
+time 20000101.025000   , step    170; iteration    1; sweep 3 grid   1
+time 20000101.025000   , step    170; iteration    1; sweep 4 grid   1
 not possible to compute, first iteration


 Time of computation ->  20000101.025100      in sec:      10260.
+time 20000101.025100   , step    171; iteration    1; sweep 1 grid   1
+time 20000101.025100   , step    171; iteration    1; sweep 2 grid   1
+time 20000101.025100   , step    171; iteration    1; sweep 3 grid   1
+time 20000101.025100   , step    171; iteration    1; sweep 4 grid   1
 not possible to compute, first iteration


 Time of computation ->  20000101.025200      in sec:      10320.
+time 20000101.025200   , step    172; iteration    1; sweep 1 grid   1
+time 20000101.025200   , step    172; iteration    1; sweep 2 grid   1
+time 20000101.025200   , step    172; iteration    1; sweep 3 grid   1
+time 20000101.025200   , step    172; iteration    1; sweep 4 grid   1
 not possible to compute, first iteration


 Time of computation ->  20000101.025300      in sec:      10380.
+time 20000101.025300   , step    173; iteration    1; sweep 1 grid   1
+time 20000101.025300   , step    173; iteration    1; sweep 2 grid   1
+time 20000101.025300   , step    173; iteration    1; sweep 3 grid   1
+time 20000101.025300   , step    173; iteration    1; sweep 4 grid   1
 not possible to compute, first iteration


 Time of computation ->  20000101.025400      in sec:      10440.
+time 20000101.025400   , step    174; iteration    1; sweep 1 grid   1
+time 20000101.025400   , step    174; iteration    1; sweep 2 grid   1
+time 20000101.025400   , step    174; iteration    1; sweep 3 grid   1
+time 20000101.025400   , step    174; iteration    1; sweep 4 grid   1
 not possible to compute, first iteration


 Time of computation ->  20000101.025500      in sec:      10500.
+time 20000101.025500   , step    175; iteration    1; sweep 1 grid   1
+time 20000101.025500   , step    175; iteration    1; sweep 2 grid   1
+time 20000101.025500   , step    175; iteration    1; sweep 3 grid   1
+time 20000101.025500   , step    175; iteration    1; sweep 4 grid   1
 not possible to compute, first iteration


 Time of computation ->  20000101.025600      in sec:      10560.
+time 20000101.025600   , step    176; iteration    1; sweep 1 grid   1
+time 20000101.025600   , step    176; iteration    1; sweep 2 grid   1
+time 20000101.025600   , step    176; iteration    1; sweep 3 grid   1
+time 20000101.025600   , step    176; iteration    1; sweep 4 grid   1
 not possible to compute, first iteration


 Time of computation ->  20000101.025700      in sec:      10620.
+time 20000101.025700   , step    177; iteration    1; sweep 1 grid   1
+time 20000101.025700   , step    177; iteration    1; sweep 2 grid   1
+time 20000101.025700   , step    177; iteration    1; sweep 3 grid   1
[...]
+time 20000101.111200   , step    672; iteration    1; sweep 4 grid   1
 not possible to compute, first iteration


 Time of computation ->  20000101.111300      in sec:      40380.
+time 20000101.111300   , step    673; iteration    1; sweep 1 grid   1
+time 20000101.111300   , step    673; iteration    1; sweep 2 grid   1
+time 20000101.111300   , step    673; iteration    1; sweep 3 grid   1
+time 20000101.111300   , step    673; iteration    1; sweep 4 grid   1
 not possible to compute, first iteration


 Time of computation ->  20000101.111400      in sec:      40440.
+time 20000101.111400   , step    674; iteration    1; sweep 1 grid   1
+time 20000101.111400   , step    674; iteration    1; sweep 2 grid   1
+time 20000101.111400   , step    674; iteration    1; sweep 3 grid   1
+time 20000101.111400   , step    674; iteration    1; sweep 4 grid   1
 not possible to compute, first iteration


 Time of computation ->  20000101.111500      in sec:      40500.
+time 20000101.111500   , step    675; iteration    1; sweep 1 grid   1
+time 20000101.111500   , step    675; iteration    1; sweep 2 grid   1
+time 20000101.111500   , step    675; iteration    1; sweep 3 grid   1
+time 20000101.111500   , step    675; iteration    1; sweep 4 grid   1
 not possible to compute, first iteration


 Time of computation ->  20000101.111600      in sec:      40560.
+time 20000101.111600   , step    676; iteration    1; sweep 1 grid   1
+time 20000101.111600   , step    676; iteration    1; sweep 2 grid   1
+time 20000101.111600   , step    676; iteration    1; sweep 3 grid   1
+time 20000101.111600   , step    676; iteration    1; sweep 4 grid   1
 not possible to compute, first iteration


 Time of computation ->  20000101.111700      in sec:      40620.
+time 20000101.111700   , step    677; iteration    1; sweep 1 grid   1
+time 20000101.111700   , step    677; iteration    1; sweep 2 grid   1
+time 20000101.111700   , step    677; iteration    1; sweep 3 grid   1
+time 20000101.111700   , step    677; iteration    1; sweep 4 grid   1
 not possible to compute, first iteration


 Time of computation ->  20000101.111800      in sec:      40680.
+time 20000101.111800   , step    678; iteration    1; sweep 1 grid   1
+time 20000101.111800   , step    678; iteration    1; sweep 2 grid   1
+time 20000101.111800   , step    678; iteration    1; sweep 3 grid   1
+time 20000101.111800   , step    678; iteration    1; sweep 4 grid   1
 not possible to compute, first iteration


 Time of computation ->  20000101.111900      in sec:      40740.
+time 20000101.111900   , step    679; iteration    1; sweep 1 grid   1
+time 20000101.111900   , step    679; iteration    1; sweep 2 grid   1
+time 20000101.111900   , step    679; iteration    1; sweep 3 grid   1
+time 20000101.111900   , step    679; iteration    1; sweep 4 grid   1
 not possible to compute, first iteration


 Time of computation ->  20000101.112000      in sec:      40800.
+time 20000101.112000   , step    680; iteration    1; sweep 1 grid   1
+time 20000101.112000   , step    680; iteration    1; sweep 2 grid   1
+time 20000101.112000   , step    680; iteration    1; sweep 3 grid   1
+time 20000101.112000   , step    680; iteration    1; sweep 4 grid   1
 not possible to compute, first iteration


 Time of computation ->  20000101.112100      in sec:      40860.
+time 20000101.112100   , step    681; iteration    1; sweep 1 grid   1
+time 20000101.112100   , step    681; iteration    1; sweep 2 grid   1
+time 20000101.112100   , step    681; iteration    1; sweep 3 grid   1
+time 20000101.112100   , step    681; iteration    1; sweep 4 grid   1
 not possible to compute, first iteration


 Time of computation ->  20000101.112200      in sec:      40920.
+time 20000101.112200   , step    682; iteration    1; sweep 1 grid   1
+time 20000101.112200   , step    682; iteration    1; sweep 2 grid   1
+time 20000101.112200   , step    682; iteration    1; sweep 3 grid   1
+time 20000101.112200   , step    682; iteration    1; sweep 4 grid   1
 not possible to compute, first iteration


 Time of computation ->  20000101.112300      in sec:      40980.
+time 20000101.112300   , step    683; iteration    1; sweep 1 grid   1
+time 20000101.112300   , step    683; iteration    1; sweep 2 grid   1
+time 20000101.112300   , step    683; iteration    1; sweep 3 grid   1
+time 20000101.112300   , step    683; iteration    1; sweep 4 grid   1
 not possible to compute, first iteration


 Time of computation ->  20000101.112400      in sec:      41040.
+time 20000101.112400   , step    684; iteration    1; sweep 1 grid   1
+time 20000101.112400   , step    684; iteration    1; sweep 2 grid   1
+time 20000101.112400   , step    684; iteration    1; sweep 3 grid   1
+time 20000101.112400   , step    684; iteration    1; sweep 4 grid   1
 not possible to compute, first iteration


 Time of computation ->  20000101.112500      in sec:      41100.
+time 20000101.112500   , step    685; iteration    1; sweep 1 grid   1
+time 20000101.112500   , step    685; iteration    1; sweep 2 grid   1
+time 20000101.112500   , step    685; iteration    1; sweep 3 grid   1
+time 20000101.112500   , step    685; iteration    1; sweep 4 grid   1
 not possible to compute, first iteration


 Time of computation ->  20000101.112600      in sec:      41160.
+time 20000101.112600   , step    686; iteration    1; sweep 1 grid   1
+time 20000101.112600   , step    686; iteration    1; sweep 2 grid   1
+time 20000101.112600   , step    686; iteration    1; sweep 3 grid   1
+time 20000101.112600   , step    686; iteration    1; sweep 4 grid   1
 not possible to compute, first iteration


 Time of computation ->  20000101.112700      in sec:      41220.
+time 20000101.112700   , step    687; iteration    1; sweep 1 grid   1
+time 20000101.112700   , step    687; iteration    1; sweep 2 grid   1
+time 20000101.112700   , step    687; iteration    1; sweep 3 grid   1
+time 20000101.112700   , step    687; iteration    1; sweep 4 grid   1
 not possible to compute, first iteration


 Time of computation ->  20000101.112800      in sec:      41280.
+time 20000101.112800   , step    688; iteration    1; sweep 1 grid   1
+time 20000101.112800   , step    688; iteration    1; sweep 2 grid   1
+time 20000101.112800   , step    688; iteration    1; sweep 3 grid   1
+time 20000101.112800   , step    688; iteration    1; sweep 4 grid   1
 not possible to compute, first iteration


 Time of computation ->  20000101.112900      in sec:      41340.
+time 20000101.112900   , step    689; iteration    1; sweep 1 grid   1
+time 20000101.112900   , step    689; iteration    1; sweep 2 grid   1
+time 20000101.112900   , step    689; iteration    1; sweep 3 grid   1
+time 20000101.112900   , step    689; iteration    1; sweep 4 grid   1
 not possible to compute, first iteration


 Time of computation ->  20000101.113000      in sec:      41400.
+time 20000101.113000   , step    690; iteration    1; sweep 1 grid   1
+time 20000101.113000   , step    690; iteration    1; sweep 2 grid   1
+time 20000101.113000   , step    690; iteration    1; sweep 3 grid   1
+time 20000101.113000   , step    690; iteration    1; sweep 4 grid   1
 not possible to compute, first iteration


 Time of computation ->  20000101.113100      in sec:      41460.
+time 20000101.113100   , step    691; iteration    1; sweep 1 grid   1
+time 20000101.113100   , step    691; iteration    1; sweep 2 grid   1
+time 20000101.113100   , step    691; iteration    1; sweep 3 grid   1
+time 20000101.113100   , step    691; iteration    1; sweep 4 grid   1
 not possible to compute, first iteration


 Time of computation ->  20000101.113200      in sec:      41520.
+time 20000101.113200   , step    692; iteration    1; sweep 1 grid   1
+time 20000101.113200   , step    692; iteration    1; sweep 2 grid   1
+time 20000101.113200   , step    692; iteration    1; sweep 3 grid   1
+time 20000101.113200   , step    692; iteration    1; sweep 4 grid   1
 not possible to compute, first iteration


 Time of computation ->  20000101.113300      in sec:      41580.
+time 20000101.113300   , step    693; iteration    1; sweep 1 grid   1
+time 20000101.113300   , step    693; iteration    1; sweep 2 grid   1
+time 20000101.113300   , step    693; iteration    1; sweep 3 grid   1
+time 20000101.113300   , step    693; iteration    1; sweep 4 grid   1
 not possible to compute, first iteration


 Time of computation ->  20000101.113400      in sec:      41640.
+time 20000101.113400   , step    694; iteration    1; sweep 1 grid   1
+time 20000101.113400   , step    694; iteration    1; sweep 2 grid   1
+time 20000101.113400   , step    694; iteration    1; sweep 3 grid   1
+time 20000101.113400   , step    694; iteration    1; sweep 4 grid   1
 not possible to compute, first iteration


 Time of computation ->  20000101.113500      in sec:      41700.
+time 20000101.113500   , step    695; iteration    1; sweep 1 grid   1
+time 20000101.113500   , step    695; iteration    1; sweep 2 grid   1
+time 20000101.113500   , step    695; iteration    1; sweep 3 grid   1
+time 20000101.113500   , step    695; iteration    1; sweep 4 grid   1
 not possible to compute, first iteration


 Time of computation ->  20000101.113600      in sec:      41760.
+time 20000101.113600   , step    696; iteration    1; sweep 1 grid   1
+time 20000101.113600   , step    696; iteration    1; sweep 2 grid   1
+time 20000101.113600   , step    696; iteration    1; sweep 3 grid   1
+time 20000101.113600   , step    696; iteration    1; sweep 4 grid   1
 not possible to compute, first iteration


 Time of computation ->  20000101.113700      in sec:      41820.
+time 20000101.113700   , step    697; iteration    1; sweep 1 grid   1
+time 20000101.113700   , step    697; iteration    1; sweep 2 grid   1
+time 20000101.113700   , step    697; iteration    1; sweep 3 grid   1
+time 20000101.113700   , step    697; iteration    1; sweep 4 grid   1
 not possible to compute, first iteration


 Time of computation ->  20000101.113800      in sec:      41880.
+time 20000101.113800   , step    698; iteration    1; sweep 1 grid   1
+time 20000101.113800   , step    698; iteration    1; sweep 2 grid   1
+time 20000101.113800   , step    698; iteration    1; sweep 3 grid   1
+time 20000101.113800   , step    698; iteration    1; sweep 4 grid   1
 not possible to compute, first iteration


 Time of computation ->  20000101.113900      in sec:      41940.
+time 20000101.113900   , step    699; iteration    1; sweep 1 grid   1
+time 20000101.113900   , step    699; iteration    1; sweep 2 grid   1
+time 20000101.113900   , step    699; iteration    1; sweep 3 grid   1
+time 20000101.113900   , step    699; iteration    1; sweep 4 grid   1
 not possible to compute, first iteration


 Time of computation ->  20000101.114000      in sec:      42000.
+time 20000101.114000   , step    700; iteration    1; sweep 1 grid   1
+time 20000101.114000   , step    700; iteration    1; sweep 2 grid   1
+time 20000101.114000   , step    700; iteration    1; sweep 3 grid   1
+time 20000101.114000   , step    700; iteration    1; sweep 4 grid   1
 not possible to compute, first iteration


 Time of computation ->  20000101.114100      in sec:      42060.
+time 20000101.114100   , step    701; iteration    1; sweep 1 grid   1
+time 20000101.114100   , step    701; iteration    1; sweep 2 grid   1
+time 20000101.114100   , step    701; iteration    1; sweep 3 grid   1
+time 20000101.114100   , step    701; iteration    1; sweep 4 grid   1
 not possible to compute, first iteration


 Time of computation ->  20000101.114200      in sec:      42120.
+time 20000101.114200   , step    702; iteration    1; sweep 1 grid   1
+time 20000101.114200   , step    702; iteration    1; sweep 2 grid   1
+time 20000101.114200   , step    702; iteration    1; sweep 3 grid   1
+time 20000101.114200   , step    702; iteration    1; sweep 4 grid   1
 not possible to compute, first iteration


 Time of computation ->  20000101.114300      in sec:      42180.
+time 20000101.114300   , step    703; iteration    1; sweep 1 grid   1
+time 20000101.114300   , step    703; iteration    1; sweep 2 grid   1
+time 20000101.114300   , step    703; iteration    1; sweep 3 grid   1
+time 20000101.114300   , step    703; iteration    1; sweep 4 grid   1
 not possible to compute, first iteration


 Time of computation ->  20000101.114400      in sec:      42240.
+time 20000101.114400   , step    704; iteration    1; sweep 1 grid   1
+time 20000101.114400   , step    704; iteration    1; sweep 2 grid   1
+time 20000101.114400   , step    704; iteration    1; sweep 3 grid   1
+time 20000101.114400   , step    704; iteration    1; sweep 4 grid   1
 not possible to compute, first iteration


 Time of computation ->  20000101.114500      in sec:      42300.
+time 20000101.114500   , step    705; iteration    1; sweep 1 grid   1
+time 20000101.114500   , step    705; iteration    1; sweep 2 grid   1
+time 20000101.114500   , step    705; iteration    1; sweep 3 grid   1
+time 20000101.114500   , step    705; iteration    1; sweep 4 grid   1
 not possible to compute, first iteration


 Time of computation ->  20000101.114600      in sec:      42360.
+time 20000101.114600   , step    706; iteration    1; sweep 1 grid   1
+time 20000101.114600   , step    706; iteration    1; sweep 2 grid   1
+time 20000101.114600   , step    706; iteration    1; sweep 3 grid   1
+time 20000101.114600   , step    706; iteration    1; sweep 4 grid   1
 not possible to compute, first iteration


 Time of computation ->  20000101.114700      in sec:      42420.
+time 20000101.114700   , step    707; iteration    1; sweep 1 grid   1
+time 20000101.114700   , step    707; iteration    1; sweep 2 grid   1
+time 20000101.114700   , step    707; iteration    1; sweep 3 grid   1
+time 20000101.114700   , step    707; iteration    1; sweep 4 grid   1
 not possible to compute, first iteration


 Time of computation ->  20000101.114800      in sec:      42480.
+time 20000101.114800   , step    708; iteration    1; sweep 1 grid   1
+time 20000101.114800   , step    708; iteration    1; sweep 2 grid   1
+time 20000101.114800   , step    708; iteration    1; sweep 3 grid   1
+time 20000101.114800   , step    708; iteration    1; sweep 4 grid   1
 not possible to compute, first iteration


 Time of computation ->  20000101.114900      in sec:      42540.
+time 20000101.114900   , step    709; iteration    1; sweep 1 grid   1
+time 20000101.114900   , step    709; iteration    1; sweep 2 grid   1
+time 20000101.114900   , step    709; iteration    1; sweep 3 grid   1
+time 20000101.114900   , step    709; iteration    1; sweep 4 grid   1
 not possible to compute, first iteration


 Time of computation ->  20000101.115000      in sec:      42600.
+time 20000101.115000   , step    710; iteration    1; sweep 1 grid   1
+time 20000101.115000   , step    710; iteration    1; sweep 2 grid   1
+time 20000101.115000   , step    710; iteration    1; sweep 3 grid   1
+time 20000101.115000   , step    710; iteration    1; sweep 4 grid   1
 not possible to compute, first iteration


 Time of computation ->  20000101.115100      in sec:      42660.
+time 20000101.115100   , step    711; iteration    1; sweep 1 grid   1
+time 20000101.115100   , step    711; iteration    1; sweep 2 grid   1
+time 20000101.115100   , step    711; iteration    1; sweep 3 grid   1
+time 20000101.115100   , step    711; iteration    1; sweep 4 grid   1
 not possible to compute, first iteration


 Time of computation ->  20000101.115200      in sec:      42720.
+time 20000101.115200   , step    712; iteration    1; sweep 1 grid   1
+time 20000101.115200   , step    712; iteration    1; sweep 2 grid   1
+time 20000101.115200   , step    712; iteration    1; sweep 3 grid   1
+time 20000101.115200   , step    712; iteration    1; sweep 4 grid   1
 not possible to compute, first iteration


 Time of computation ->  20000101.115300      in sec:      42780.
+time 20000101.115300   , step    713; iteration    1; sweep 1 grid   1
+time 20000101.115300   , step    713; iteration    1; sweep 2 grid   1
+time 20000101.115300   , step    713; iteration    1; sweep 3 grid   1
+time 20000101.115300   , step    713; iteration    1; sweep 4 grid   1
 not possible to compute, first iteration


 Time of computation ->  20000101.115400      in sec:      42840.
+time 20000101.115400   , step    714; iteration    1; sweep 1 grid   1
+time 20000101.115400   , step    714; iteration    1; sweep 2 grid   1
+time 20000101.115400   , step    714; iteration    1; sweep 3 grid   1
+time 20000101.115400   , step    714; iteration    1; sweep 4 grid   1
 not possible to compute, first iteration


 Time of computation ->  20000101.115500      in sec:      42900.
+time 20000101.115500   , step    715; iteration    1; sweep 1 grid   1
+time 20000101.115500   , step    715; iteration    1; sweep 2 grid   1
+time 20000101.115500   , step    715; iteration    1; sweep 3 grid   1
+time 20000101.115500   , step    715; iteration    1; sweep 4 grid   1
 not possible to compute, first iteration


 Time of computation ->  20000101.115600      in sec:      42960.
+time 20000101.115600   , step    716; iteration    1; sweep 1 grid   1
+time 20000101.115600   , step    716; iteration    1; sweep 2 grid   1
+time 20000101.115600   , step    716; iteration    1; sweep 3 grid   1
+time 20000101.115600   , step    716; iteration    1; sweep 4 grid   1
 not possible to compute, first iteration


 Time of computation ->  20000101.115700      in sec:      43020.
+time 20000101.115700   , step    717; iteration    1; sweep 1 grid   1
+time 20000101.115700   , step    717; iteration    1; sweep 2 grid   1
+time 20000101.115700   , step    717; iteration    1; sweep 3 grid   1
+time 20000101.115700   , step    717; iteration    1; sweep 4 grid   1
 not possible to compute, first iteration


 Time of computation ->  20000101.115800      in sec:      43080.
+time 20000101.115800   , step    718; iteration    1; sweep 1 grid   1
+time 20000101.115800   , step    718; iteration    1; sweep 2 grid   1
+time 20000101.115800   , step    718; iteration    1; sweep 3 grid   1
+time 20000101.115800   , step    718; iteration    1; sweep 4 grid   1
 not possible to compute, first iteration


 Time of computation ->  20000101.115900      in sec:      43140.
+time 20000101.115900   , step    719; iteration    1; sweep 1 grid   1
+time 20000101.115900   , step    719; iteration    1; sweep 2 grid   1
+time 20000101.115900   , step    719; iteration    1; sweep 3 grid   1
+time 20000101.115900   , step    719; iteration    1; sweep 4 grid   1
 not possible to compute, first iteration


 Time of computation ->  20000101.120000      in sec:      43200.
+time 20000101.120000   , step    720; iteration    1; sweep 1 grid   1
+time 20000101.120000   , step    720; iteration    1; sweep 2 grid   1
+time 20000101.120000   , step    720; iteration    1; sweep 3 grid   1
+time 20000101.120000   , step    720; iteration    1; sweep 4 grid   1
 not possible to compute, first iteration


+SWAN is processing output request    1
+SWAN is processing output request    2
+SWAN is processing output request    3
+SWAN is processing output request    4
+SWAN is processing output request    5
+SWAN is processing output request    6
+SWAN is processing output request    7
+SWAN is processing output request    8
+SWAN is processing output request    9
+SWAN is processing output request   10
+SWAN is processing output request   11
+SWAN is processing output request   12
+SWAN is processing output request   13
+SWAN is processing output request   14
+SWAN is processing output request   15
+SWAN is processing output request   16
+SWAN is processing output request   17
+SWAN is processing output request   18
+SWAN is processing output request   19
    
 
    
 STOP
